# coding=utf-8
# --------------------------------------------------------------------
# Copyright (C) 1991 - 2025 - EDF R&D - www.code-aster.org
# This file is part of code_aster.
#
# code_aster is free software: you can redistribute it and/or modify
# it under the terms of the GNU General Public License as published by
# the Free Software Foundation, either version 3 of the License, or
# (at your option) any later version.
#
# code_aster is distributed in the hope that it will be useful,
# but WITHOUT ANY WARRANTY; without even the implied warranty of
# MERCHANTABILITY or FITNESS FOR A PARTICULAR PURPOSE.  See the
# GNU General Public License for more details.
#
# You should have received a copy of the GNU General Public License
# along with code_aster.  If not, see <http://www.gnu.org/licenses/>.
# --------------------------------------------------------------------

#
#  GUIDE D'ONDE A SORTIE ANECHOIQUE SOLVEUR : METHODE MULTIFRONTALE


DEBUT(CODE="OUI", ERREUR=_F(ALARME="EXCEPTION"), DEBUG=_F(SDVERI="OUI"))

F = 500.0

MAYA = LIRE_MAILLAGE(FORMAT="MED")

AIR = DEFI_MATERIAU(FLUIDE=_F(RHO=1.3, CELE_R=343.0))

CHAMPMAT = AFFE_MATERIAU(
    MAILLAGE=MAYA, AFFE=(_F(TOUT="OUI", MATER=AIR), _F(GROUP_MA="SORTIE", MATER=AIR))
)

COLONNE = AFFE_MODELE(
    MAILLAGE=MAYA,
    AFFE=(
        _F(TOUT="OUI", MODELISATION="3D_FLUIDE", PHENOMENE="MECANIQUE"),
        _F(GROUP_MA="SORTIE", MODELISATION="3D_FLUI_ABSO", PHENOMENE="MECANIQUE"),
    ),
)

#  --- AFIN DE TESTER UN CHARGEMENT AVEC UNE FONCTION ON DECOMPOSE
#      VNOR = 0.014 = 0.010 (AFFE_CHAR_MECA) + 0.004 (AFFE_CHAR_MECA_F)

CHARMECA = AFFE_CHAR_MECA(MODELE=COLONNE, VITE_FACE=_F(GROUP_MA="ENTREE", VNOR=0.010))

#  --- CHARGEMENT IDENTIQUE MAIS AVEC UNE FONCTION ---

VNOR = DEFI_FONCTION(NOM_PARA="X", VALE=(0.0, 0.004, 1.0, 0.004))

CHARMECF = AFFE_CHAR_MECA_F(MODELE=COLONNE, VITE_FACE=_F(GROUP_MA="ENTREE", VNOR=VNOR))

MATELE_K = CALC_MATR_ELEM(MODELE=COLONNE, CHAM_MATER=CHAMPMAT, OPTION="RIGI_MECA", CHARGE=CHARMECA)

MATELE_M = CALC_MATR_ELEM(MODELE=COLONNE, CHAM_MATER=CHAMPMAT, OPTION="MASS_MECA", CHARGE=CHARMECA)

MATELE_I = CALC_MATR_ELEM(MODELE=COLONNE, CHAM_MATER=CHAMPMAT, OPTION="IMPE_MECA")


VECTELEM = CALC_VECT_ELEM(OPTION="CHAR_MECA", CHAM_MATER=CHAMPMAT, CHARGE=(CHARMECA, CHARMECF))

NUM = NUME_DDL(MATR_RIGI=MATELE_K)

MATASK = ASSE_MATRICE(MATR_ELEM=MATELE_K, NUME_DDL=NUM)

MATASM = ASSE_MATRICE(MATR_ELEM=MATELE_M, NUME_DDL=NUM)

MATASI = ASSE_MATRICE(MATR_ELEM=MATELE_I, NUME_DDL=NUM)

MATASIB = COMB_MATR_ASSE(COMB_R=_F(MATR_ASSE=MATASI, COEF_R=-1.0))

VECTASS = ASSE_VECTEUR(VECT_ELEM=VECTELEM, NUME_DDL=NUM)

DYNAHARM = DYNA_VIBRA(
    TYPE_CALCUL="HARM",
    BASE_CALCUL="PHYS",
    SOLVEUR=_F(METHODE="MULT_FRONT", RENUM="MD"),
    MATR_MASS=MATASM,
    MATR_RIGI=MATASK,
    MATR_IMPE_PHI=MATASI,
    FREQ=F,
    EXCIT=_F(VECT_ASSE=VECTASS, COEF_MULT=1.0, PUIS_PULS=1, PHAS_DEG=90.0),
)

TEST_RESU(
    RESU=(
        _F(
            NUME_ORDRE=1,
            VALE_REFE_C=("RI", -6.2426000000000004, 0.0),
            VALE_CALC_C=("RI", -6.2425145509512, -3.177920646438e-04),
            PRECISION=1.0e-3,
            REFERENCE="ANALYTIQUE",
            RESULTAT=DYNAHARM,
            NOM_CHAM="DEPL",
            GROUP_NO="NO1",
            NOM_CMP="PRES",
        ),
        _F(
            NUME_ORDRE=1,
            VALE_REFE_C=("MP", 6.2426000000000004, 180.0),
            VALE_CALC_C=("RI", -6.2425145732145, -3.1772413645936e-04),
            PRECISION=1.0e-3,
            REFERENCE="ANALYTIQUE",
            RESULTAT=DYNAHARM,
            NOM_CHAM="DEPL",
            GROUP_NO="NO780",
            NOM_CMP="PRES",
        ),
        _F(
            NUME_ORDRE=1,
            VALE_REFE_C=("MP", 6.2426000000000004, 15.2186),
            VALE_CALC_C=("RI", 6.0221726627638, 1.6440674349053),
            PRECISION=1.0e-3,
            REFERENCE="ANALYTIQUE",
            RESULTAT=DYNAHARM,
            NOM_CHAM="DEPL",
            GROUP_NO="NO751",
            NOM_CMP="PRES",
        ),
        _F(
            NUME_ORDRE=1,
            VALE_REFE_C=("MP", 6.2426000000000004, 15.2186),
            VALE_CALC_C=("RI", 6.0221725935735, 1.6440673833277),
            PRECISION=1.0e-3,
            REFERENCE="ANALYTIQUE",
            RESULTAT=DYNAHARM,
            NOM_CHAM="DEPL",
            GROUP_NO="NO763",
            NOM_CMP="PRES",
        ),
    )
)

DYNAHARM = CALC_CHAMP(reuse=DYNAHARM, TOUT_ORDRE="OUI", RESULTAT=DYNAHARM, ACOUSTIQUE="PRME_ELNO")


TEST_RESU(
    RESU=(
        _F(
            NUME_ORDRE=1,
            RESULTAT=DYNAHARM,
            NOM_CHAM="PRME_ELNO",
            GROUP_NO="NO1",
            NOM_CMP="DB",
            VALE_REFE=109.8867,
            VALE_CALC=109.88659136479,
            PRECISION=1.0e-3,
            REFERENCE="ANALYTIQUE",
            GROUP_MA="MA1",
        ),
        _F(
            NUME_ORDRE=1,
            RESULTAT=DYNAHARM,
            NOM_CHAM="PRME_ELNO",
            GROUP_NO="NO780",
            NOM_CMP="DB",
            VALE_REFE=109.8867,
            VALE_CALC=109.88659139576,
            PRECISION=1.0e-3,
            REFERENCE="ANALYTIQUE",
            GROUP_MA="MA1",
        ),
        _F(
            NUME_ORDRE=1,
            RESULTAT=DYNAHARM,
            NOM_CHAM="PRME_ELNO",
            GROUP_NO="NO751",
            NOM_CMP="DB",
            VALE_REFE=109.8867,
            VALE_CALC=109.88665079761,
            PRECISION=1.0e-3,
            REFERENCE="ANALYTIQUE",
            GROUP_MA="MA57",
        ),
        _F(
            NUME_ORDRE=1,
            RESULTAT=DYNAHARM,
            NOM_CHAM="PRME_ELNO",
            GROUP_NO="NO763",
            NOM_CMP="DB",
            VALE_REFE=109.8867,
            VALE_CALC=109.88665068583,
            PRECISION=1.0e-3,
            REFERENCE="ANALYTIQUE",
            GROUP_MA="MA57",
        ),
    )
)

FIN()
#
