# coding=utf-8
# --------------------------------------------------------------------
# Copyright (C) 1991 - 2025 - EDF R&D - www.code-aster.org
# This file is part of code_aster.
#
# code_aster is free software: you can redistribute it and/or modify
# it under the terms of the GNU General Public License as published by
# the Free Software Foundation, either version 3 of the License, or
# (at your option) any later version.
#
# code_aster is distributed in the hope that it will be useful,
# but WITHOUT ANY WARRANTY; without even the implied warranty of
# MERCHANTABILITY or FITNESS FOR A PARTICULAR PURPOSE.  See the
# GNU General Public License for more details.
#
# You should have received a copy of the GNU General Public License
# along with code_aster.  If not, see <http://www.gnu.org/licenses/>.
# --------------------------------------------------------------------

# person_in_charge: david.haboussa at edf.fr
# ELASTOPLASTICITE  ECROUISSAGE ISOTROPE VON MISES
# ......................................................................

DEBUT(CODE="OUI", ERREUR=_F(ALARME="EXCEPTION"), IMPR_MACRO="NON")

# donnee materiau et fonction

# parametres elastiques
YOUNG = 200000.0
POISSON = 0.3

# def des materiaux
ACIER = [None] * 2
# unite en Pa
C_Pa = 1.0e6
YOUNG_Pa = YOUNG * C_Pa
#
# COURBE DE TRACTION a LA TEMPeRATURE 100 degres
#
A7 = DEFI_FONCTION(
    NOM_PARA="EPSI",
    PROL_DROITE="CONSTANT",
    PROL_GAUCHE="EXCLU",
    VALE=(
        2.185e-3,
        437.0e6,
        9.185e-3,
        437.0e6,
        0.010235,
        447.0e6,
        0.015385,
        477.0e6,
        0.020485,
        497.0e6,
        0.025585,
        517.0e6,
        0.030635,
        527.0e6,
        0.03571,
        542.0e6,
        0.04076,
        552.0e6,
        0.04581,
        562.0e6,
# ... 18 like lines cut
    ),
)


ACIER[0] = DEFI_MATERIAU(ELAS=_F(E=YOUNG_Pa, NU=POISSON, ALPHA=11.8e-6), TRACTION=_F(SIGM=A7))
# unite en MPa
A7_MPa = CALC_FONCTION(COMB=_F(FONCTION=A7, COEF=1.0 / C_Pa))

ACIER[1] = DEFI_MATERIAU(ELAS=_F(E=YOUNG, NU=POISSON, ALPHA=11.8e-6), TRACTION=_F(SIGM=A7_MPa))

compor = "VMIS_ISOT_TRAC"

# test 3D
tabresu = TEST_COMPOR(
    OPTION="MECA",
    INFO=1,
    COMPORTEMENT=_F(RELATION=compor, RESI_INTE=1.0e-8),
    NEWTON=_F(REAC_ITER=1),
    LIST_MATER=ACIER,
    YOUNG=YOUNG,
    POISSON=POISSON,
    VARI_TEST=("V1", "VMIS", "TRACE"),
)

# IMPR_TABLE(TABLE=tabresu)

# test C_PLAN
tabres2 = TEST_COMPOR(
    OPTION="MECA",
    INFO=1,
    MODELISATION="C_PLAN",
    SUPPORT="ELEMENT",
    COMPORTEMENT=_F(RELATION=compor, RESI_INTE=1.0e-8),
    NEWTON=_F(REAC_ITER=1),
    LIST_MATER=ACIER,
    YOUNG=YOUNG,
    POISSON=POISSON,
    LIST_NPAS=4 * [1] + [1, 5],
    VARI_TEST=("V1", "VMIS", "TRACE"),
    LIST_TOLE=4 * [1.0e-10] + [5.0e-1] + 2 * [11.0e-2] + [1.0e-2],
)

# IMPR_TABLE(TABLE=tabres2)

FIN()
