# coding=utf-8
# --------------------------------------------------------------------
# Copyright (C) 1991 - 2025 - EDF R&D - www.code-aster.org
# This file is part of code_aster.
#
# code_aster is free software: you can redistribute it and/or modify
# it under the terms of the GNU General Public License as published by
# the Free Software Foundation, either version 3 of the License, or
# (at your option) any later version.
#
# code_aster is distributed in the hope that it will be useful,
# but WITHOUT ANY WARRANTY; without even the implied warranty of
# MERCHANTABILITY or FITNESS FOR A PARTICULAR PURPOSE.  See the
# GNU General Public License for more details.
#
# You should have received a copy of the GNU General Public License
# along with code_aster.  If not, see <http://www.gnu.org/licenses/>.
# --------------------------------------------------------------------

# person_in_charge: david.haboussa at edf.fr
# ECROUISSAGE CINEMATIQUE LINERAIRE et ISOTROPE NON-LINEAIRE (FCT EXPONENTIEL)
#

DEBUT(CODE="OUI", ERREUR=_F(ALARME="EXCEPTION"))


# parametres elastiques
YOUNG = 200000.0
POISSON = 0.3

# paramtres loi ECMI_TRAC
C_PRAG = 1486.9

# def des materiaux
ACIER = [None] * 2
# unite en Pa
C_Pa = 1.0e6
YOUNG_Pa = YOUNG * C_Pa
C_PRAG_Pa = C_PRAG * C_Pa

A_ECM = DEFI_FONCTION(
    NOM_PARA="EPSI",
    VALE=(
        2.18500e-03,
        4.37000e02,
        2.39020e-03,
        4.38040e02,
        2.59534e-03,
        4.39068e02,
        2.80043e-03,
        4.40085e02,
        3.00545e-03,
        4.41091e02,
        3.21043e-03,
        4.42085e02,
        3.41534e-03,
        4.43069e02,
        3.62021e-03,
        4.44042e02,
        3.82502e-03,
        4.45004e02,
        4.02978e-03,
        4.45957e02,
# ... 242 like lines cut
    ),
    PROL_DROITE="LINEAIRE",
    PROL_GAUCHE="LINEAIRE",
)

A_ECM_Pa = CALC_FONCTION(COMB=_F(FONCTION=A_ECM, COEF=C_Pa))

ACIER[0] = DEFI_MATERIAU(
    ELAS=_F(E=YOUNG_Pa, NU=POISSON, ALPHA=11.8e-6),
    TRACTION=_F(SIGM=A_ECM_Pa),
    PRAGER=_F(C=C_PRAG_Pa),
)
# unite en MPa
ACIER[1] = DEFI_MATERIAU(
    ELAS=_F(E=YOUNG, NU=POISSON, ALPHA=11.8e-6), TRACTION=_F(SIGM=A_ECM), PRAGER=_F(C=C_PRAG)
)


ch_param = [
    "V1",
    "VMIS",
    "TRACE",
    "SIXX",
    "SIYY",
    "SIZZ",
    "SIXY",
    "SIXZ",
    "SIYZ",
    "V3",
    "V4",
    "V5",
    "V6",
]

compor = "VMIS_ECMI_TRAC"

tabresu = TEST_COMPOR(
    OPTION="MECA",
    COMPORTEMENT=_F(RELATION=compor),
    NEWTON=_F(REAC_ITER=1),
    LIST_MATER=ACIER,
    LIST_NPAS=4 * [1] + [1, 5, 25],
    VARI_TEST=("V1", "VMIS", "TRACE"),
    # LIST_TOLE=4*[1.E-10] + [1.E-1] + 2*[1.E-2] + [1.E-8]
    YOUNG=YOUNG,
    POISSON=POISSON,
)

IMPR_TABLE(TABLE=tabresu)


FIN()
