# coding=utf-8
# --------------------------------------------------------------------
# Copyright (C) 1991 - 2025 - EDF R&D - www.code-aster.org
# This file is part of code_aster.
#
# code_aster is free software: you can redistribute it and/or modify
# it under the terms of the GNU General Public License as published by
# the Free Software Foundation, either version 3 of the License, or
# (at your option) any later version.
#
# code_aster is distributed in the hope that it will be useful,
# but WITHOUT ANY WARRANTY; without even the implied warranty of
# MERCHANTABILITY or FITNESS FOR A PARTICULAR PURPOSE.  See the
# GNU General Public License for more details.
#
# You should have received a copy of the GNU General Public License
# along with code_aster.  If not, see <http://www.gnu.org/licenses/>.
# ----------------------------------------------------------------------

import numpy as np

DEBUT(CODE="OUI", ERREUR=_F(ALARME="EXCEPTION"), DEBUG=_F(SDVERI="OUI"))

# MODELIDATION B : FEM, (demi-)plaque avec condition de symétrie, maillage libre

# CE FICHIER EST LA VERSION CORRIGEE DU 1ER EXERCICE DES TPS

# Unités : m, Pa
a = 0.1
W = 1.0
sigma = 10.0e6
E = 210000.0e6
nu = 0.3

# -----------------------------------------------------------------------
# Maillage
# -----------------------------------------------------------------------

# lecture maillage quadratique
MA = LIRE_MAILLAGE(FORMAT="MED")

MA = MODI_MAILLAGE(reuse=MA, MAILLAGE=MA, ORIE_PEAU=_F(GROUP_MA_PEAU="HAUT"))

# Barsoum
MA = MODI_MAILLAGE(
    reuse=MA, MAILLAGE=MA, MODI_MAILLE=_F(OPTION="NOEUD_QUART", GROUP_NO_FOND="FRONT")
)

# -----------------------------------------------------------------------
# Modèle
# -----------------------------------------------------------------------

MO = AFFE_MODELE(MAILLAGE=MA, AFFE=_F(TOUT="OUI", PHENOMENE="MECANIQUE", MODELISATION="D_PLAN"))

# -----------------------------------------------------------------------
# Matériau
# -----------------------------------------------------------------------

ACIER = DEFI_MATERIAU(ELAS=_F(E=E, NU=nu))

CHMAT = AFFE_MATERIAU(MAILLAGE=MA, AFFE=_F(TOUT="OUI", MATER=ACIER))

# -----------------------------------------------------------------------
# CL et Chargements
# -----------------------------------------------------------------------

BLOC = AFFE_CHAR_MECA(
    MODELE=MO, DDL_IMPO=(_F(GROUP_MA="SYM", DY=0.0), _F(GROUP_NO="FRONT", DX=0.0))
)

CHAR = AFFE_CHAR_MECA(MODELE=MO, FORCE_CONTOUR=_F(GROUP_MA="HAUT", FY=sigma))

# -----------------------------------------------------------------------
# Résolution
# -----------------------------------------------------------------------

RESU = MECA_STATIQUE(MODELE=MO, CHAM_MATER=CHMAT, EXCIT=(_F(CHARGE=BLOC), _F(CHARGE=CHAR)))

RESU = CALC_CHAMP(reuse=RESU, RESULTAT=RESU, CONTRAINTE="SIGM_NOEU", CRITERES="SIEQ_NOEU")

IMPR_RESU(FORMAT="MED", UNITE=80, RESU=_F(RESULTAT=RESU))

# -----------------------------------------------------------------------
# Post-traitements en Mécanique de la Rupture
# -----------------------------------------------------------------------

FISS = DEFI_FOND_FISS(
    MAILLAGE=MA, SYME="OUI", FOND_FISS=_F(GROUP_NO="FRONT"), LEVRE_SUP=_F(GROUP_MA="LEVRE")
)
h = 0.005
RINF = h * 2
RSUP = h * 5

# Méthode G-thêta
G = CALC_G(
    OPTION="G",
    RESULTAT=RESU,
    THETA=_F(CHAM_THETA=CO("chno_theta"), FISSURE=FISS, R_INF=RINF, R_SUP=RSUP),
)

IMPR_TABLE(TABLE=G)

GK = CALC_G(OPTION=("G", "K"), RESULTAT=RESU, THETA=_F(FISSURE=FISS, R_INF=RINF, R_SUP=RSUP))

IMPR_TABLE(TABLE=GK)

# Méthode par extrapolaton des sauts de déplacements
K = POST_K1_K2_K3(RESULTAT=RESU, FOND_FISS=FISS, ABSC_CURV_MAXI=5 * h)

IMPR_TABLE(TABLE=K)

# -----------------------------------------------------------------------
# Comparaison aux valeurs de référence
# -----------------------------------------------------------------------

# Valeurs de référence : régression par moindres carrés (Gross 1964; Brown 1966)
a_W = a / W
f = 1.122 - 0.231 * a_W + 10.550 * a_W**2 - 21.710 * a_W**3 + 30.382 * a_W**4

# formule alternative de Tada 1973
# ~q = np.pi*a_W/2.
# ~f = np.sqrt(np.tan(q)/q)*(0.752+2.02*a_W+0.37*(1-np.sin(q))**3)/np.cos(q)

K1ref = f * sigma * np.sqrt(np.pi * a)
# ~K1ref = 6.646e6

Gref = (1 - nu**2) / E * K1ref**2
# Gref = 191.4

# tests sur G
TEST_TABLE(
    REFERENCE="ANALYTIQUE",
    PRECISION=0.6e-2,
    VALE_CALC=192.511256986,
    VALE_REFE=Gref,
    NOM_PARA="G",
    TABLE=G,
)

TEST_TABLE(
    REFERENCE="ANALYTIQUE",
    PRECISION=0.6e-2,
    VALE_CALC=192.511256986,
    VALE_REFE=Gref,
    NOM_PARA="G",
    TABLE=GK,
)

TEST_TABLE(
    REFERENCE="ANALYTIQUE",
    PRECISION=0.6e-2,
    VALE_CALC=192.527315126,
    VALE_REFE=Gref,
    NOM_PARA="G_IRWIN",
    TABLE=GK,
)

TEST_TABLE(
    REFERENCE="ANALYTIQUE",
    PRECISION=1.0e-2,
    VALE_CALC=193.008786982,
    VALE_REFE=Gref,
    NOM_PARA="G",
    TABLE=K,
)

# tests sur K1
TEST_TABLE(
    REFERENCE="ANALYTIQUE",
    PRECISION=0.3e-2,
    VALE_CALC=6665536.76861,
    VALE_REFE=K1ref,
    NOM_PARA="K1",
    TABLE=GK,
)

TEST_TABLE(
    REFERENCE="ANALYTIQUE",
    PRECISION=0.5e-2,
    VALE_CALC=6673866.14366,
    VALE_REFE=K1ref,
    NOM_PARA="K1",
    TABLE=K,
)

FIN()
