# coding=utf-8
# --------------------------------------------------------------------
# Copyright (C) 1991 - 2025 - EDF R&D - www.code-aster.org
# This file is part of code_aster.
#
# code_aster is free software: you can redistribute it and/or modify
# it under the terms of the GNU General Public License as published by
# the Free Software Foundation, either version 3 of the License, or
# (at your option) any later version.
#
# code_aster is distributed in the hope that it will be useful,
# but WITHOUT ANY WARRANTY; without even the implied warranty of
# MERCHANTABILITY or FITNESS FOR A PARTICULAR PURPOSE.  See the
# GNU General Public License for more details.
#
# You should have received a copy of the GNU General Public License
# along with code_aster.  If not, see <http://www.gnu.org/licenses/>.
# --------------------------------------------------------------------

DEBUT(CODE="OUI", DEBUG=_F(SDVERI="OUI"))

# ......................................................................
#
# MODELISATION 2D_AXIS:   121 NOEUDS -- 32 MAILLES QUA8
# ......................................................................
#
#        INTERNE                   EXTERNE
#               D -----+----- C
# !               !    J    !
#                 !         !
# !               !         !
#                 !         !        10 MM
# !               !         !
#                 !         !
# !               !    F    !
#     19.5 MM   A -----+-----  B
# !-------------->   1.0 MM
#                 <--------->
# ======================================================================
# PRE_GIBI()

MA = LIRE_MAILLAGE(FORMAT="MED")

MA = DEFI_GROUP(reuse=MA, MAILLAGE=MA, CREA_GROUP_NO=_F(TOUT_GROUP_MA="OUI"))

MO = AFFE_MODELE(MAILLAGE=MA, AFFE=_F(TOUT="OUI", PHENOMENE="MECANIQUE", MODELISATION="AXIS"))

MOTHER = AFFE_MODELE(MAILLAGE=MA, AFFE=_F(TOUT="OUI", PHENOMENE="THERMIQUE", MODELISATION="PLAN"))

MAT = DEFI_MATERIAU(ELAS=_F(E=2.0e5, NU=0.3, RHO=8.0e-6, ALPHA=1.0e-5))

MATHER = DEFI_MATERIAU(THER=_F(LAMBDA=1.0, RHO_CP=0.0))

CHMAT = AFFE_MATERIAU(MAILLAGE=MA, AFFE=_F(TOUT="OUI", MATER=MAT))

CHMATHE = AFFE_MATERIAU(MAILLAGE=MA, AFFE=_F(TOUT="OUI", MATER=MATHER))

# ------------------------------------------------------------------

CHTHE = AFFE_CHAR_THER(
    MODELE=MOTHER, TEMP_IMPO=(_F(GROUP_NO="BC", TEMP=0.5), _F(GROUP_NO="DA", TEMP=-0.5))
)

CHTH2 = AFFE_CHAR_THER(
    MODELE=MOTHER, TEMP_IMPO=(_F(GROUP_NO="BC", TEMP=0.1), _F(GROUP_NO="DA", TEMP=0.1))
)

TEMPLIN = THER_LINEAIRE(
    MODELE=MOTHER,
    CHAM_MATER=CHMATHE,
    TYPE_CALCUL="STAT",
    INCREMENT=_F(LIST_INST=DEFI_LIST_REEL(VALE=0.0)),
    EXCIT=_F(CHARGE=CHTHE),
)

TEMPLI2 = THER_LINEAIRE(
    MODELE=MOTHER,
    CHAM_MATER=CHMATHE,
    TYPE_CALCUL="STAT",
    INCREMENT=_F(LIST_INST=DEFI_LIST_REEL(VALE=0.0)),
    EXCIT=_F(CHARGE=CHTH2),
)

# ------------------------------------------------------------------

CHPES = AFFE_CHAR_MECA(
    MODELE=MO,
    PESANTEUR=_F(GRAVITE=10.0, DIRECTION=(0.0, -1.0, 0.0)),
    DDL_IMPO=_F(GROUP_NO="F", DY=0.0),
    PRES_REP=_F(GROUP_MA="HAUT", PRES=-8.0e-4),
)

CHROT = AFFE_CHAR_MECA(
    MODELE=MO,
    ROTATION=_F(
        GROUP_MA=(
            "M17",
            "M18",
            "M19",
            "M20",
            "M21",
            "M22",
            "M23",
            "M24",
            "M25",
            "M26",
            "M27",
            "M28",
            "M29",
            "M30",
            "M31",
            "M32",
            "ZONE1",
        ),
        VITESSE=1.0,
        AXE=(0.0, 1.0, 0.0),
    ),
    DDL_IMPO=(_F(GROUP_NO="BAS", DY=0.0), _F(GROUP_NO="HAUT", DY=0.0)),
)

IMPR_CO(CONCEPT=_F(NOM=CHROT))

CHDIL = AFFE_CHAR_MECA(MODELE=MO, DDL_IMPO=_F(GROUP_NO="TOUT", DY=0.0))

CHDI2 = AFFE_CHAR_MECA(
    MODELE=MO, DDL_IMPO=(_F(GROUP_NO="BAS", DY=0.0), _F(GROUP_NO="HAUT", DY=0.0))
)

CHMTM = AFFE_MATERIAU(
    MAILLAGE=MA,
    AFFE=_F(TOUT="OUI", MATER=MAT),
    AFFE_VARC=_F(TOUT="OUI", NOM_VARC="TEMP", EVOL=TEMPLIN, NOM_CHAM="TEMP", VALE_REF=0.0),
)

CHMTM2 = AFFE_MATERIAU(
    MAILLAGE=MA,
    AFFE=_F(TOUT="OUI", MATER=MAT),
    AFFE_VARC=_F(TOUT="OUI", NOM_VARC="TEMP", EVOL=TEMPLI2, NOM_CHAM="TEMP", VALE_REF=0.0),
)

# ------------------------------------------------------------------

DEPLPES = MECA_STATIQUE(MODELE=MO, CHAM_MATER=CHMAT, EXCIT=_F(CHARGE=CHPES))

DEPLPES = CALC_CHAMP(
    reuse=DEPLPES,
    RESULTAT=DEPLPES,
    CONTRAINTE=("SIGM_ELNO"),
    DEFORMATION=("EPME_ELNO", "EPSI_ELNO"),
)


DEPLROT = MECA_STATIQUE(MODELE=MO, CHAM_MATER=CHMAT, EXCIT=_F(CHARGE=CHROT))

DEPLROT = CALC_CHAMP(
    reuse=DEPLROT,
    RESULTAT=DEPLROT,
    CONTRAINTE=("SIGM_ELNO"),
    DEFORMATION=("EPME_ELNO", "EPSI_ELNO"),
)


DEPLDIL = MECA_STATIQUE(MODELE=MO, CHAM_MATER=CHMTM, EXCIT=_F(CHARGE=CHDIL))

DEPLDIL = CALC_CHAMP(
    reuse=DEPLDIL,
    RESULTAT=DEPLDIL,
    CONTRAINTE=("SIGM_ELNO"),
    DEFORMATION=("EPME_ELNO", "EPSI_ELNO"),
)


DEPLDI2 = MECA_STATIQUE(MODELE=MO, CHAM_MATER=CHMTM2, EXCIT=_F(CHARGE=CHDI2))

DEPLDI2 = CALC_CHAMP(
    reuse=DEPLDI2,
    RESULTAT=DEPLDI2,
    CONTRAINTE=("SIGM_ELNO"),
    DEFORMATION=("EPME_ELNO", "EPSI_ELNO"),
)


# ---------------------------------------------------------------------

T_POT = POST_ELEM(ENER_POT=_F(TOUT="OUI"), RESULTAT=DEPLDIL)

IMPR_TABLE(TABLE=T_POT)

# VERSION=6.02.21 sans charge thermique :  7.73874E-04  (1/2U)
# VERSION=6.02.21 avec charge thermique :  5.43077E-19  (1/2U - 1/2Th)
# VERSION=6.02.22 avec charge thermique : -7.73874E-04  (1/2U - Th)

TEST_TABLE(
    VALE_CALC=4.7612599996081e-04,
    VALE_REFE=4.76125999961e-4,
    REFERENCE="ANALYTIQUE",
    PRECISION=1.0e-3,
    NOM_PARA="TOTALE",
    TABLE=T_POT,
)

# ---------------------------------------------------------------------

TEST_RESU(
    RESU=(
        _F(
            NUME_ORDRE=1,
            GROUP_NO="D",
            RESULTAT=DEPLPES,
            NOM_CHAM="DEPL",
            NOM_CMP="DX",
            VALE_CALC=-2.3400000000068e-08,
            VALE_REFE=-2.3400000000000001e-08,
            REFERENCE="ANALYTIQUE",
            PRECISION=1.0000000000000001e-05,
            CRITERE="RELATIF",
        ),
        _F(
            NUME_ORDRE=1,
            GROUP_NO="A",
            RESULTAT=DEPLPES,
            NOM_CHAM="DEPL",
            NOM_CMP="DY",
            VALE_CALC=-1.184999999996e-09,
            VALE_REFE=-1.1849999999999999e-09,
            REFERENCE="ANALYTIQUE",
            PRECISION=1.0000000000000001e-05,
            CRITERE="RELATIF",
        ),
        _F(
            NUME_ORDRE=1,
            GROUP_NO="D",
            RESULTAT=DEPLPES,
            NOM_CHAM="DEPL",
            NOM_CMP="DX",
            VALE_CALC=-2.3400000000068e-08,
            VALE_REFE=-2.3400000000000001e-08,
            REFERENCE="ANALYTIQUE",
            PRECISION=1.0000000000000001e-05,
            CRITERE="RELATIF",
        ),
        _F(
            NUME_ORDRE=1,
            GROUP_NO="B",
            RESULTAT=DEPLPES,
            NOM_CHAM="DEPL",
            NOM_CMP="DY",
            VALE_CALC=1.2149999999964e-09,
            VALE_REFE=1.215e-09,
            REFERENCE="ANALYTIQUE",
            PRECISION=1.0000000000000001e-05,
            CRITERE="RELATIF",
        ),
        _F(
            NUME_ORDRE=1,
            GROUP_NO="A",
            RESULTAT=DEPLROT,
            NOM_CHAM="DEPL",
            NOM_CMP="DX",
            VALE_CALC=2.9423744998569e-07,
            VALE_REFE=2.9424000000000002e-07,
            REFERENCE="ANALYTIQUE",
            PRECISION=2.0000000000000002e-05,
            CRITERE="RELATIF",
        ),
        _F(
            NUME_ORDRE=1,
            GROUP_NO="B",
            RESULTAT=DEPLROT,
            NOM_CHAM="DEPL",
            NOM_CMP="DX",
            VALE_CALC=2.8800654998639e-07,
            VALE_REFE=2.8801e-07,
            REFERENCE="ANALYTIQUE",
            PRECISION=2.0000000000000002e-05,
            CRITERE="RELATIF",
        ),
        _F(
            NUME_ORDRE=1,
            GROUP_NO="A",
            RESULTAT=DEPLDIL,
            NOM_CHAM="DEPL",
            NOM_CMP="DX",
            VALE_CALC=1.0562499149531e-06,
            VALE_REFE=1.0561449999999999e-06,
            REFERENCE="ANALYTIQUE",
            PRECISION=2.0000000000000001e-4,
            CRITERE="RELATIF",
        ),
        _F(
            NUME_ORDRE=1,
            GROUP_NO="B",
            RESULTAT=DEPLDIL,
            NOM_CHAM="DEPL",
            NOM_CMP="DX",
            VALE_CALC=1.1104165857684e-06,
            VALE_REFE=1.110317e-06,
            REFERENCE="ANALYTIQUE",
            PRECISION=1.0e-4,
            CRITERE="RELATIF",
        ),
        _F(
            NUME_ORDRE=1,
            GROUP_NO="A",
            RESULTAT=DEPLDI2,
            NOM_CHAM="DEPL",
            NOM_CMP="DX",
            VALE_CALC=2.5350000000004e-05,
            VALE_REFE=2.535e-05,
            REFERENCE="ANALYTIQUE",
            PRECISION=1.0000000000000001e-05,
            CRITERE="RELATIF",
        ),
        _F(
            NUME_ORDRE=1,
            GROUP_NO="D",
            RESULTAT=DEPLPES,
            NOM_CHAM="SIGM_ELNO",
            NOM_CMP="SIYY",
            VALE_CALC=7.9999999999959e-04,
            VALE_REFE=8.0000000000000004e-4,
            REFERENCE="ANALYTIQUE",
            PRECISION=2.0000000000000002e-05,
            CRITERE="RELATIF",
            GROUP_MA="M13",
        ),
        _F(
            NUME_ORDRE=1,
            GROUP_NO="A",
            RESULTAT=DEPLROT,
            NOM_CHAM="SIGM_ELNO",
            NOM_CMP="SIYY",
            VALE_CALC=9.9489230750528e-04,
            VALE_REFE=9.9488000000000007e-4,
            REFERENCE="ANALYTIQUE",
            PRECISION=2.0000000000000002e-05,
            CRITERE="RELATIF",
            GROUP_MA="M1",
        ),
        _F(
            NUME_ORDRE=1,
            GROUP_NO="B",
            RESULTAT=DEPLROT,
            NOM_CHAM="SIGM_ELNO",
            NOM_CMP="SIYY",
            VALE_CALC=9.2632043859477e-04,
            VALE_REFE=9.2630999999999996e-4,
            REFERENCE="ANALYTIQUE",
            PRECISION=2.0000000000000002e-05,
            CRITERE="RELATIF",
            GROUP_MA="M32",
        ),
        _F(
            NUME_ORDRE=1,
            GROUP_NO="A",
            RESULTAT=DEPLDIL,
            NOM_CHAM="SIGM_ELNO",
            NOM_CMP="SIYY",
            VALE_CALC=1.4321583718148,
            VALE_REFE=1.4321583,
            REFERENCE="ANALYTIQUE",
            PRECISION=1.0000000000000001e-05,
            CRITERE="RELATIF",
            GROUP_MA="M1",
        ),
        _F(
            NUME_ORDRE=1,
            GROUP_NO="A",
            RESULTAT=DEPLDI2,
            NOM_CHAM="SIGM_ELNO",
            NOM_CMP="SIYY",
            VALE_CALC=-0.19999999999963,
            VALE_REFE=-0.20000000000000001,
            REFERENCE="ANALYTIQUE",
            PRECISION=1.0000000000000001e-05,
            CRITERE="RELATIF",
            GROUP_MA="M1",
        ),
        _F(
            NUME_ORDRE=1,
            GROUP_NO="A",
            RESULTAT=DEPLDIL,
            NOM_CHAM="EPME_ELNO",
            NOM_CMP="EPYY",
            VALE_CALC=5.0e-06,
            VALE_REFE=5.0000000000000004e-06,
            REFERENCE="ANALYTIQUE",
            PRECISION=1.0000000000000001e-05,
            CRITERE="RELATIF",
            GROUP_MA="M1",
        ),
        _F(
            NUME_ORDRE=1,
            GROUP_NO="A",
            RESULTAT=DEPLDI2,
            NOM_CHAM="EPME_ELNO",
            NOM_CMP="EPYY",
            VALE_CALC=-9.9999999999833e-07,
            VALE_REFE=-9.9999999999999995e-07,
            REFERENCE="ANALYTIQUE",
            PRECISION=1.0000000000000001e-05,
            CRITERE="RELATIF",
            GROUP_MA="M1",
        ),
    )
)

FIN()

#
