# coding=utf-8
# --------------------------------------------------------------------
# Copyright (C) 1991 - 2025 - EDF R&D - www.code-aster.org
# This file is part of code_aster.
#
# code_aster is free software: you can redistribute it and/or modify
# it under the terms of the GNU General Public License as published by
# the Free Software Foundation, either version 3 of the License, or
# (at your option) any later version.
#
# code_aster is distributed in the hope that it will be useful,
# but WITHOUT ANY WARRANTY; without even the implied warranty of
# MERCHANTABILITY or FITNESS FOR A PARTICULAR PURPOSE.  See the
# GNU General Public License for more details.
#
# You should have received a copy of the GNU General Public License
# along with code_aster.  If not, see <http://www.gnu.org/licenses/>.
# --------------------------------------------------------------------

# CAS_TEST__: HPLV100A

DEBUT(CODE="OUI", ERREUR=_F(ALARME="EXCEPTION"), DEBUG=_F(SDVERI="OUI"))

#
# CALCUL THERMIQUE D'UN PARALLELEPIPEDE AVEC FLUX CONSTANT SUR
#  CHACUNE DE CES FACES, AFIN D' OBTENIR LES CHAMPS DE TEMPERATURES
#  T= AX+BY+CZ+D ET T= AX+CY+BZ+D
#

M = LIRE_MAILLAGE(FORMAT="MED")

MO = AFFE_MODELE(MAILLAGE=M, AFFE=_F(TOUT="OUI", PHENOMENE="THERMIQUE", MODELISATION="3D"))

MODI_MAILLAGE(reuse=M, MAILLAGE=M, ORIE_PEAU=_F(GROUP_MA_PEAU=("YZO", "YZA")))

MA = DEFI_MATERIAU(THER=_F(RHO_CP=2.0, LAMBDA=1.0))

CMTH = AFFE_MATERIAU(MAILLAGE=M, AFFE=_F(TOUT="OUI", MATER=MA))

TE = DEFI_CONSTANTE(VALE=0.0)

YZA = DEFI_CONSTANTE(VALE=-2.0)

YZO = DEFI_CONSTANTE(VALE=2.0)

XZP = DEFI_CONSTANTE(VALE=-3.0)

XZM = DEFI_CONSTANTE(VALE=3.0)

XYC = DEFI_CONSTANTE(VALE=-4.0)

XYM = DEFI_CONSTANTE(VALE=4.0)

CH_1 = AFFE_CHAR_THER_F(
    MODELE=MO,
    FLUX_REP=(
        _F(GROUP_MA="YZA", FLUN=YZA),
        _F(GROUP_MA="YZO", FLUN=YZO),
        _F(GROUP_MA="XZP", FLUN=XZP),
        _F(GROUP_MA="XZM", FLUN=XZM),
        _F(GROUP_MA="XYC", FLUX_Z=XYC),
        _F(GROUP_MA="XYM", FLUN=XYM),
    ),
    TEMP_IMPO=_F(GROUP_NO="A", TEMP=TE),
)

CH_2 = AFFE_CHAR_THER_F(
    MODELE=MO,
    FLUX_REP=(
        _F(GROUP_MA="YZA", FLUN=YZA),
        _F(GROUP_MA="YZO", FLUN=YZO),
        _F(GROUP_MA="XZP", FLUN=XYC),
        _F(GROUP_MA="XZM", FLUN=XYM),
        _F(GROUP_MA="XYC", FLUN=XZP),
        _F(GROUP_MA="XYM", FLUN=XZM),
    ),
    TEMP_IMPO=_F(GROUP_NO="A", TEMP=TE),
)

TEMP1 = THER_LINEAIRE(
    MODELE=MO,
    CHAM_MATER=CMTH,
    EXCIT=_F(CHARGE=CH_1),
    TYPE_CALCUL="STAT",
    INCREMENT=_F(LIST_INST=DEFI_LIST_REEL(VALE=0.0)),
)

TEMP2 = THER_LINEAIRE(
    MODELE=MO,
    CHAM_MATER=CMTH,
    EXCIT=_F(CHARGE=CH_2),
    TYPE_CALCUL="STAT",
    INCREMENT=_F(LIST_INST=DEFI_LIST_REEL(VALE=0.0)),
)

CHT1 = CREA_CHAMP(
    OPERATION="EXTR", TYPE_CHAM="NOEU_TEMP_R", NOM_CHAM="TEMP", RESULTAT=TEMP1, NUME_ORDRE=1
)

CHT2 = CREA_CHAMP(
    OPERATION="EXTR", TYPE_CHAM="NOEU_TEMP_R", NOM_CHAM="TEMP", RESULTAT=TEMP2, NUME_ORDRE=1
)

TEMP = CREA_RESU(
    OPERATION="AFFE",
    TYPE_RESU="EVOL_THER",
    AFFE=(_F(NOM_CHAM="TEMP", INST=1.0, CHAM_GD=CHT1), _F(NOM_CHAM="TEMP", INST=2.0, CHAM_GD=CHT2)),
)

TEST_RESU(
    CHAM_NO=(
        _F(
            NOM_CMP="TEMP",
            GROUP_NO="O",
            CHAM_GD=CHT1,
            VALE_CALC=39.999999999999,
            VALE_REFE=40.0,
            REFERENCE="ANALYTIQUE",
            PRECISION=1.0e-3,
        ),
        _F(
            NOM_CMP="TEMP",
            GROUP_NO="D",
            CHAM_GD=CHT1,
            VALE_CALC=-35.0,
            VALE_REFE=-35.0,
            REFERENCE="ANALYTIQUE",
            PRECISION=1.0e-3,
        ),
        _F(
            NOM_CMP="TEMP",
            GROUP_NO="O",
            CHAM_GD=CHT2,
            VALE_CALC=39.999999999999,
            VALE_REFE=40.0,
            REFERENCE="ANALYTIQUE",
            PRECISION=1.0e-3,
        ),
        _F(
            NOM_CMP="TEMP",
            GROUP_NO="D",
            CHAM_GD=CHT2,
            VALE_CALC=-35.000000000001,
            VALE_REFE=-35.0,
            REFERENCE="ANALYTIQUE",
            PRECISION=1.0e-3,
        ),
    )
)

#
#   CALCUL ELASTIQUE AVEC E= 1000./(-TEMPER+800.)
#


MO2 = AFFE_MODELE(MAILLAGE=M, AFFE=_F(TOUT="OUI", PHENOMENE="MECANIQUE", MODELISATION="3D"))

FE = DEFI_FONCTION(
    NOM_PARA="TEMP",
    VALE=(
        -3.5550e01,
        1.1968e00,
        -3.5000e01,
        1.1976e00,
        -3.4450e01,
        1.1984e00,
        -3.3900e01,
        1.1992e00,
        -3.3350e01,
        1.2000e00,
        -3.2800e01,
        1.2008e00,
        -3.2250e01,
        1.2016e00,
        -3.1700e01,
        1.2024e00,
        -3.1150e01,
        1.2032e00,
        -3.0600e01,
        1.2039e00,
# ... 384 like lines cut
    ),
)

#

FNU = DEFI_CONSTANTE(VALE=0.3)

FAL = DEFI_CONSTANTE(VALE=0.0)

MA2 = DEFI_MATERIAU(ELAS_FO=_F(E=FE, NU=FNU, ALPHA=FAL, TEMP_DEF_ALPHA=20.0))

CMME = AFFE_MATERIAU(
    MAILLAGE=M,
    AFFE=_F(TOUT="OUI", MATER=MA2),
    AFFE_VARC=_F(TOUT="OUI", VALE_REF=0.0, EVOL=TEMP, NOM_VARC="TEMP"),
)

# LA CHARGE SUIVANTE (CH4) EST SEPAREE DE CH2 POUR VERIFIER LA
# CORRECTION DE AL 95-075

CH4 = AFFE_CHAR_MECA(
    MODELE=MO2,
    DDL_IMPO=(
        _F(GROUP_NO="O", DX=0.0, DY=0.0, DZ=0.0),
        _F(GROUP_NO="B", DX=0.0, DZ=0.0),
        _F(GROUP_NO="C", DX=0.0),
    ),
    PRES_REP=(_F(GROUP_MA="YZO", PRES=-1.0), _F(GROUP_MA="YZA", PRES=-1.0)),
)

# LA CHARGE SUIVANTE (CH3) NE DOIT RIEN CHANGER AU RESULTAT
# CAR LE DDL EST BLOQUE. ELLE NE SERT QU'A VERIFIER QUE L'ON PEUT
# METTRE 2 CHARGES DANS MECA_STATIQUE AVEC OPTION : 'SIGM_ELNO'

CH3 = AFFE_CHAR_MECA(MODELE=MO2, FORCE_NODALE=_F(GROUP_NO="O", FX=10.0))

LR = DEFI_LIST_REEL(DEBUT=1.0, INTERVALLE=_F(JUSQU_A=2.0, NOMBRE=1))


RES = MECA_STATIQUE(
    MODELE=MO2, CHAM_MATER=CMME, LIST_INST=LR, EXCIT=(_F(CHARGE=CH4), _F(CHARGE=CH3))
)

CALC_CHAMP(reuse=RES, RESULTAT=RES, CONTRAINTE=("SIGM_ELNO"), LIST_INST=LR)


CALC_CHAMP(reuse=RES, DEFORMATION=("EPSI_ELNO"), RESULTAT=RES)


TEST_RESU(
    RESU=(
        _F(
            NUME_ORDRE=1,
            GROUP_NO="A",
            RESULTAT=RES,
            NOM_CHAM="DEPL",
            NOM_CMP="DX",
            VALE_CALC=15.599993462915,
            VALE_REFE=15.6,
            REFERENCE="ANALYTIQUE",
            PRECISION=1.0e-3,
        ),
        _F(
            NUME_ORDRE=1,
            GROUP_NO="A",
            RESULTAT=RES,
            NOM_CHAM="DEPL",
            NOM_CMP="DY",
            VALE_CALC=-0.57009669537376,
            VALE_REFE=-0.57,
            REFERENCE="ANALYTIQUE",
            PRECISION=1.0e-3,
        ),
        _F(
            NUME_ORDRE=1,
            GROUP_NO="A",
            RESULTAT=RES,
            NOM_CHAM="DEPL",
            NOM_CMP="DZ",
            VALE_CALC=-0.77001202794284,
            VALE_REFE=-0.77,
            REFERENCE="ANALYTIQUE",
            PRECISION=1.0e-3,
        ),
        _F(
            NUME_ORDRE=1,
            GROUP_NO="D",
            RESULTAT=RES,
            NOM_CHAM="DEPL",
            NOM_CMP="DX",
            VALE_CALC=16.300042733022,
            VALE_REFE=16.30,
            REFERENCE="ANALYTIQUE",
            PRECISION=1.0e-3,
        ),
        _F(
            NUME_ORDRE=1,
            GROUP_NO="D",
            RESULTAT=RES,
            NOM_CHAM="DEPL",
            NOM_CMP="DY",
            VALE_CALC=-1.7851079536521,
            VALE_REFE=-1.785,
            REFERENCE="ANALYTIQUE",
            PRECISION=1.0e-3,
        ),
        _F(
            NUME_ORDRE=1,
            GROUP_NO="D",
            RESULTAT=RES,
            NOM_CHAM="DEPL",
            NOM_CMP="DZ",
            VALE_CALC=-2.0075023238657,
            VALE_REFE=-2.0075,
            REFERENCE="ANALYTIQUE",
            PRECISION=1.0e-3,
        ),
        _F(
            NUME_ORDRE=1,
            POINT=1,
            RESULTAT=RES,
            NOM_CHAM="SIGM_ELNO",
            NOM_CMP="SIXX",
            VALE_CALC=1.0000078574935,
            VALE_REFE=1.0,
            REFERENCE="ANALYTIQUE",
            PRECISION=1.0e-3,
            GROUP_MA="M1",
        ),
        _F(
            NUME_ORDRE=1,
            RESULTAT=RES,
            NOM_CHAM="EPSI_ELNO",
            GROUP_NO="N22",
            NOM_CMP="EPXX",
            VALE_CALC=0.80000060181900,
            VALE_REFE=0.8,
            REFERENCE="ANALYTIQUE",
            PRECISION=1.0e-3,
            GROUP_MA="M13",
        ),
        _F(
            NUME_ORDRE=1,
            RESULTAT=RES,
            NOM_CHAM="EPSI_ELNO",
            GROUP_NO="N22",
            NOM_CMP="EPYY",
            VALE_CALC=-0.23999818078561,
            VALE_REFE=-0.24,
            REFERENCE="ANALYTIQUE",
            PRECISION=1.0e-3,
            GROUP_MA="M13",
        ),
    )
)

TEST_RESU(
    RESU=(
        _F(
            NUME_ORDRE=2,
            GROUP_NO="A",
            RESULTAT=RES,
            NOM_CHAM="DEPL",
            NOM_CMP="DX",
            VALE_CALC=15.599993462916,
            VALE_REFE=15.6,
            REFERENCE="ANALYTIQUE",
            PRECISION=1.0e-3,
        ),
        _F(
            NUME_ORDRE=2,
            GROUP_NO="A",
            RESULTAT=RES,
            NOM_CHAM="DEPL",
            NOM_CMP="DY",
            VALE_CALC=-0.77001202793973,
            VALE_REFE=-0.77,
            REFERENCE="ANALYTIQUE",
            PRECISION=1.0e-3,
        ),
        _F(
            NUME_ORDRE=2,
            GROUP_NO="A",
            RESULTAT=RES,
            NOM_CHAM="DEPL",
            NOM_CMP="DZ",
            VALE_CALC=-0.57009669536868,
            VALE_REFE=-0.57,
            REFERENCE="ANALYTIQUE",
            PRECISION=1.0e-3,
        ),
        _F(
            NUME_ORDRE=2,
            GROUP_NO="D",
            RESULTAT=RES,
            NOM_CHAM="DEPL",
            NOM_CMP="DX",
            VALE_CALC=16.30004273302,
            VALE_REFE=16.30,
            REFERENCE="ANALYTIQUE",
            PRECISION=1.0e-3,
        ),
        _F(
            NUME_ORDRE=2,
            GROUP_NO="D",
            RESULTAT=RES,
            NOM_CHAM="DEPL",
            NOM_CMP="DY",
            VALE_CALC=-1.9812632575504,
            VALE_REFE=-1.98125,
            REFERENCE="ANALYTIQUE",
            PRECISION=1.0e-3,
        ),
        _F(
            NUME_ORDRE=2,
            GROUP_NO="D",
            RESULTAT=RES,
            NOM_CHAM="DEPL",
            NOM_CMP="DZ",
            VALE_CALC=-1.8113470199591,
            VALE_REFE=-1.81125,
            REFERENCE="ANALYTIQUE",
            PRECISION=1.0e-3,
        ),
        _F(
            NUME_ORDRE=2,
            POINT=1,
            RESULTAT=RES,
            NOM_CHAM="SIGM_ELNO",
            NOM_CMP="SIXX",
            VALE_CALC=1.0000078574936,
            VALE_REFE=1.0,
            REFERENCE="ANALYTIQUE",
            PRECISION=1.0e-3,
            GROUP_MA="M1",
        ),
        _F(
            NUME_ORDRE=2,
            RESULTAT=RES,
            NOM_CHAM="EPSI_ELNO",
            GROUP_NO="N22",
            NOM_CMP="EPXX",
            VALE_CALC=0.80000060181900,
            VALE_REFE=0.80,
            REFERENCE="ANALYTIQUE",
            PRECISION=1.0e-3,
            GROUP_MA="M13",
        ),
        _F(
            NUME_ORDRE=2,
            RESULTAT=RES,
            NOM_CHAM="EPSI_ELNO",
            GROUP_NO="N22",
            NOM_CMP="EPYY",
            VALE_CALC=-0.24000141433621,
            VALE_REFE=-0.24,
            REFERENCE="ANALYTIQUE",
            PRECISION=1.0e-3,
            GROUP_MA="M13",
        ),
    )
)

FIN()
#
