# coding=utf-8
# --------------------------------------------------------------------
# Copyright (C) 1991 - 2025 - EDF R&D - www.code-aster.org
# This file is part of code_aster.
#
# code_aster is free software: you can redistribute it and/or modify
# it under the terms of the GNU General Public License as published by
# the Free Software Foundation, either version 3 of the License, or
# (at your option) any later version.
#
# code_aster is distributed in the hope that it will be useful,
# but WITHOUT ANY WARRANTY; without even the implied warranty of
# MERCHANTABILITY or FITNESS FOR A PARTICULAR PURPOSE.  See the
# GNU General Public License for more details.
#
# You should have received a copy of the GNU General Public License
# along with code_aster.  If not, see <http://www.gnu.org/licenses/>.
# --------------------------------------------------------------------

DEBUT(CODE="OUI", ERREUR=_F(ALARME="EXCEPTION"), DEBUG=_F(SDVERI="OUI"))

M = LIRE_MAILLAGE(FORMAT="MED")

M = DEFI_GROUP(
    reuse=M,
    MAILLAGE=M,
    CREA_GROUP_NO=(
        _F(GROUP_MA="LEVREINF"),
        _F(GROUP_MA="SSUP_S"),
        _F(GROUP_MA="SAV_S"),
        _F(GROUP_MA="SLAT_S"),
        _F(GROUP_MA="SINF"),
        _F(GROUP_MA="SAR"),
        _F(GROUP_MA="SLAT"),
        _F(UNION=("SINF", "SAR", "SLAT"), NOM="INFINI"),
    ),
)

# --------------------------------------------------------------------
#               DEBUT DU THERMIQUE                                  #
# --------------------------------------------------------------------

# normalement, il vaut mieux faire le calcul thermique sur un maillage lineaire

MOTH = AFFE_MODELE(MAILLAGE=M, AFFE=_F(TOUT="OUI", PHENOMENE="THERMIQUE", MODELISATION="3D"))

MATH = DEFI_MATERIAU(THER=_F(LAMBDA=1.0, RHO_CP=0.0))

CMTH = AFFE_MATERIAU(MAILLAGE=M, AFFE=_F(TOUT="OUI", MATER=MATH))

CHTH = AFFE_CHAR_THER(
    MODELE=MOTH, TEMP_IMPO=(_F(GROUP_NO="INFINI", TEMP=0.0), _F(GROUP_NO="LEVREINF", TEMP=-1.0))
)

THLI = THER_LINEAIRE(
    MODELE=MOTH,
    CHAM_MATER=CMTH,
    EXCIT=_F(CHARGE=CHTH),
    TYPE_CALCUL="STAT",
    INCREMENT=_F(LIST_INST=DEFI_LIST_REEL(VALE=0.0)),
)

TEMP = CREA_CHAMP(
    TYPE_CHAM="NOEU_TEMP_R", OPERATION="EXTR", RESULTAT=THLI, NOM_CHAM="TEMP", INST=0.0
)

# --------------------------------------------------------------------
#               FIN DU THERMIQUE                                    #
# --------------------------------------------------------------------

# Barsoum
M = MODI_MAILLAGE(reuse=M, MAILLAGE=M, MODI_MAILLE=_F(OPTION="NOEUD_QUART", GROUP_NO_FOND="LFF"))

MO = AFFE_MODELE(MAILLAGE=M, AFFE=_F(TOUT="OUI", PHENOMENE="MECANIQUE", MODELISATION="3D"))
#

MA = DEFI_MATERIAU(ELAS=_F(E=200000000000.0, NU=0.3, ALPHA=1e-06))
#

CM = AFFE_MATERIAU(
    MAILLAGE=M,
    AFFE=_F(TOUT="OUI", MATER=MA),
    AFFE_VARC=_F(TOUT="OUI", NOM_VARC="TEMP", CHAM_GD=TEMP, VALE_REF=0.0),
)
#

CH = AFFE_CHAR_MECA(
    MODELE=MO,
    DOUBLE_LAGRANGE="NON",
    DDL_IMPO=(
        _F(GROUP_NO="SSUP_S", DZ=0.0),
        _F(GROUP_NO="SLAT_S", DX=0.0),
        _F(GROUP_NO="SAV_S", DY=0.0),
    ),
)
#

MEST = MECA_STATIQUE(MODELE=MO, CHAM_MATER=CM, EXCIT=_F(CHARGE=CH))
#

T_POT = POST_ELEM(ENER_POT=_F(TOUT="OUI"), RESULTAT=MEST)

IMPR_TABLE(TABLE=T_POT)
# VERSION=6.02.21 sans charge thermique :  3.92012E-06  (1/2U)
# VERSION=6.02.21 avec charge thermique : -9.74690E-21  (1/2U - 1/2Th)
# VERSION=6.02.22 avec charge thermique : -3.92012E-06  (1/2U - Th)
# VERSION=6.03.20 avec charge thermique : 1.47E-06(1/2U - Th + 1/2 Eth A Eth)

TEST_TABLE(
    VALE_CALC=1.47608122885,
    NOM_PARA="TOTALE",
    TABLE=T_POT,
    FILTRE=_F(NOM_PARA="NUME_ORDRE", VALE_I=1),
)

#
# --------------------------------------------------------------------
#               CALCUL DE G (LOCAL) SUR LES 4 COURONNES             #
# --------------------------------------------------------------------

# C1 = 0.07 - 0.2
# C2 = 0.20 - 0.4
# C3 = 0.4  - 0.6
# C4 = 0.07 - 0.6

# 0.07 = 1er rayon du tore
# 0.2  = 3eme rayon du tore
# 0.4  = hors tore
# 0.6  = hors tore

FF = DEFI_FOND_FISS(
    MAILLAGE=M,
    SYME="OUI",
    FOND_FISS=_F(GROUP_MA="MLFF", GROUP_NO_ORIG="LFFO", GROUP_NO_EXTR="LFFE"),
    LEVRE_SUP=_F(GROUP_MA="LEVREINF"),
)

# Couronne 1, lissage legendre
GLOC1a = CALC_G(
    THETA=_F(FISSURE=FF, R_INF=0.07, R_SUP=0.2, DISCRETISATION="LEGENDRE"),
    RESULTAT=MEST,
    OPTION="G",
)

IMPR_TABLE(TABLE=GLOC1a)


# Couronne 1, lissage linéaire
GLOC1c = CALC_G(
    THETA=_F(FISSURE=FF, R_INF=0.07, R_SUP=0.2, DISCRETISATION="LINEAIRE"),
    RESULTAT=MEST,
    OPTION="G",
)

IMPR_TABLE(TABLE=GLOC1c)

# Couronne 2, lissage legendre
GLOC2a = CALC_G(
    THETA=_F(FISSURE=FF, R_INF=0.2, R_SUP=0.4, DISCRETISATION="LEGENDRE"), RESULTAT=MEST, OPTION="G"
)

IMPR_TABLE(TABLE=GLOC2a)

# Couronne 2, lissage linéaire
GLOC2c = CALC_G(
    THETA=_F(FISSURE=FF, R_INF=0.2, R_SUP=0.4, DISCRETISATION="LINEAIRE"), RESULTAT=MEST, OPTION="G"
)

IMPR_TABLE(TABLE=GLOC2c)

# Couronne 3, lissage legendre
GLOC3a = CALC_G(
    THETA=_F(FISSURE=FF, R_INF=0.4, R_SUP=0.6, DISCRETISATION="LEGENDRE"), RESULTAT=MEST, OPTION="G"
)

IMPR_TABLE(TABLE=GLOC3a)

# Couronne 3, lissage linéaire
GLOC3c = CALC_G(
    THETA=_F(FISSURE=FF, R_INF=0.4, R_SUP=0.6, DISCRETISATION="LINEAIRE"), RESULTAT=MEST, OPTION="G"
)

IMPR_TABLE(TABLE=GLOC3c)

# Couronne 4, lissage legendre
GLOC4a = CALC_G(
    THETA=_F(FISSURE=FF, R_INF=0.07, R_SUP=0.6, DISCRETISATION="LEGENDRE"),
    RESULTAT=MEST,
    OPTION="G",
)

IMPR_TABLE(TABLE=GLOC4a)

# Couronne 4, lissage linéaire
GLOC4c = CALC_G(
    THETA=_F(FISSURE=FF, R_INF=0.07, R_SUP=0.6, DISCRETISATION="LINEAIRE"),
    RESULTAT=MEST,
    OPTION="G",
)

IMPR_TABLE(TABLE=GLOC4c)

# Couronne 5, lissage legendre
GLOC5a = CALC_G(THETA=_F(FISSURE=FF, DISCRETISATION="LEGENDRE"), RESULTAT=MEST, OPTION="G")

IMPR_TABLE(TABLE=GLOC5a)

# Couronne 5, lissage linéaire
GLOC5c = CALC_G(THETA=_F(FISSURE=FF, DISCRETISATION="LINEAIRE"), RESULTAT=MEST, OPTION="G")

IMPR_TABLE(TABLE=GLOC5c)

# --------------------------------------------------------------------
#            TEST DES RESULTATS DE G LOCAL                           #
# --------------------------------------------------------------------

Gloc_ref = 0.1132

tol_machine = 0.02

TEST_TABLE(
    REFERENCE="ANALYTIQUE",
    PRECISION=0.02,
    VALE_CALC=0.11144760680716054,
    VALE_REFE=Gloc_ref,
    NOM_PARA="G",
    TYPE_TEST="MAX",
    TABLE=GLOC1a,
)

TEST_TABLE(
    REFERENCE="ANALYTIQUE",
    PRECISION=0.02,
    VALE_CALC=0.11097626147719816,
    VALE_REFE=Gloc_ref,
    NOM_PARA="G",
    TYPE_TEST="MIN",
    TABLE=GLOC1a,
)

TEST_TABLE(
    REFERENCE="ANALYTIQUE",
    PRECISION=0.02,
    VALE_CALC=0.11112878448094941,
    VALE_REFE=Gloc_ref,
    NOM_PARA="G",
    TYPE_TEST="MAX",
    TABLE=GLOC1c,
)

TEST_TABLE(
    REFERENCE="ANALYTIQUE",
    PRECISION=0.03,
    VALE_CALC=0.11097783860293041,
    VALE_REFE=Gloc_ref,
    NOM_PARA="G",
    TYPE_TEST="MIN",
    TABLE=GLOC1c,
)

TEST_TABLE(
    REFERENCE="ANALYTIQUE",
    PRECISION=0.02,
    VALE_CALC=0.11337651938133074,
    VALE_REFE=Gloc_ref,
    NOM_PARA="G",
    TYPE_TEST="MAX",
    TABLE=GLOC2a,
)

TEST_TABLE(
    REFERENCE="ANALYTIQUE",
    PRECISION=0.025,
    VALE_CALC=0.11073824769958171,
    VALE_REFE=Gloc_ref,
    NOM_PARA="G",
    TYPE_TEST="MIN",
    TABLE=GLOC2a,
)

TEST_TABLE(
    REFERENCE="ANALYTIQUE",
    PRECISION=0.02,
    VALE_CALC=0.1113909222615455,
    VALE_REFE=Gloc_ref,
    NOM_PARA="G",
    TYPE_TEST="MAX",
    TABLE=GLOC2c,
)

TEST_TABLE(
    REFERENCE="ANALYTIQUE",
    PRECISION=0.035,
    VALE_CALC=0.1109931866502502,
    VALE_REFE=Gloc_ref,
    NOM_PARA="G",
    TYPE_TEST="MIN",
    TABLE=GLOC2c,
)

TEST_TABLE(
    REFERENCE="ANALYTIQUE",
    PRECISION=0.055,
    VALE_CALC=0.1191511042331308,
    VALE_REFE=Gloc_ref,
    NOM_PARA="G",
    TYPE_TEST="MAX",
    TABLE=GLOC3a,
)

TEST_TABLE(
    REFERENCE="ANALYTIQUE",
    PRECISION=0.035,
    VALE_CALC=0.10975586379115201,
    VALE_REFE=Gloc_ref,
    NOM_PARA="G",
    TYPE_TEST="MIN",
    TABLE=GLOC3a,
)

TEST_TABLE(
    REFERENCE="ANALYTIQUE",
    PRECISION=0.04,
    VALE_CALC=0.11289766277057534,
    VALE_REFE=Gloc_ref,
    NOM_PARA="G",
    TYPE_TEST="MAX",
    TABLE=GLOC3c,
)

TEST_TABLE(
    REFERENCE="ANALYTIQUE",
    PRECISION=0.06,
    VALE_CALC=0.11073355710404931,
    VALE_REFE=Gloc_ref,
    NOM_PARA="G",
    TYPE_TEST="MIN",
    TABLE=GLOC3c,
)

TEST_TABLE(
    REFERENCE="ANALYTIQUE",
    PRECISION=0.02,
    VALE_CALC=0.11508247850532666,
    VALE_REFE=Gloc_ref,
    NOM_PARA="G",
    TYPE_TEST="MAX",
    TABLE=GLOC4a,
)

TEST_TABLE(
    REFERENCE="ANALYTIQUE",
    PRECISION=0.025,
    VALE_CALC=0.11042662215001384,
    VALE_REFE=Gloc_ref,
    NOM_PARA="G",
    TYPE_TEST="MIN",
    TABLE=GLOC4a,
)

TEST_TABLE(
    REFERENCE="ANALYTIQUE",
    PRECISION=1.5e-2,
    VALE_CALC=0.11189520563952383,
    VALE_REFE=Gloc_ref,
    NOM_PARA="G",
    TYPE_TEST="MAX",
    TABLE=GLOC4c,
)

TEST_TABLE(
    REFERENCE="ANALYTIQUE",
    PRECISION=0.04,
    VALE_CALC=0.11093271762997416,
    VALE_REFE=Gloc_ref,
    NOM_PARA="G",
    TYPE_TEST="MIN",
    TABLE=GLOC4c,
)

TEST_TABLE(
    REFERENCE="ANALYTIQUE",
    PRECISION=0.02,
    VALE_CALC=0.11187109957932719,
    VALE_REFE=Gloc_ref,
    NOM_PARA="G",
    TYPE_TEST="MAX",
    TABLE=GLOC5a,
)

TEST_TABLE(
    REFERENCE="ANALYTIQUE",
    PRECISION=0.025,
    VALE_CALC=0.11087706486525913,
    VALE_REFE=Gloc_ref,
    NOM_PARA="G",
    TYPE_TEST="MIN",
    TABLE=GLOC5a,
)

TEST_TABLE(
    REFERENCE="ANALYTIQUE",
    PRECISION=2.0e-2,
    VALE_CALC=0.11114208737157927,
    VALE_REFE=Gloc_ref,
    NOM_PARA="G",
    TYPE_TEST="MAX",
    TABLE=GLOC5c,
)

TEST_TABLE(
    REFERENCE="ANALYTIQUE",
    PRECISION=0.04,
    VALE_CALC=0.11098505899760615,
    VALE_REFE=Gloc_ref,
    NOM_PARA="G",
    TYPE_TEST="MIN",
    TABLE=GLOC5c,
)


# --------------------------------------------------------------------
#               CALCUL DES K (LOCAUX) sur 3 COURONNES
# --------------------------------------------------------------------

# Couronne 1, lissage legendre
GKLOC1a = CALC_G(
    THETA=_F(FISSURE=FF, R_INF=0.07, R_SUP=0.2, DISCRETISATION="LEGENDRE"),
    RESULTAT=MEST,
    OPTION="K",
)

IMPR_TABLE(TABLE=GKLOC1a)


# Couronne 1, lissage linéaire
GKLOC1c = CALC_G(
    THETA=_F(FISSURE=FF, R_INF=0.07, R_SUP=0.2, DISCRETISATION="LINEAIRE"),
    RESULTAT=MEST,
    OPTION="K",
)

IMPR_TABLE(TABLE=GKLOC1c)

# Couronne 2, lissage legendre
GKLOC2a = CALC_G(
    THETA=_F(FISSURE=FF, R_INF=0.2, R_SUP=0.4, DISCRETISATION="LEGENDRE"), RESULTAT=MEST, OPTION="K"
)

IMPR_TABLE(TABLE=GKLOC2a)

# Couronne 2, lissage linéaire
GKLOC2c = CALC_G(
    THETA=_F(FISSURE=FF, R_INF=0.2, R_SUP=0.4, DISCRETISATION="LINEAIRE"), RESULTAT=MEST, OPTION="K"
)

IMPR_TABLE(TABLE=GKLOC2c)

# Couronne 3, lissage legendre
GKLOC3a = CALC_G(
    THETA=_F(FISSURE=FF, R_INF=0.4, R_SUP=0.6, DISCRETISATION="LEGENDRE"), RESULTAT=MEST, OPTION="K"
)

IMPR_TABLE(TABLE=GKLOC3a)


# Couronne 3, lissage linéaire
GKLOC3c = CALC_G(
    THETA=_F(FISSURE=FF, R_INF=0.4, R_SUP=0.6, DISCRETISATION="LINEAIRE"), RESULTAT=MEST, OPTION="K"
)

IMPR_TABLE(TABLE=GKLOC3c)

# Couronne 5, lissage legendre
GKLOC5a = CALC_G(THETA=_F(FISSURE=FF, DISCRETISATION="LEGENDRE"), RESULTAT=MEST, OPTION="K")

IMPR_TABLE(TABLE=GKLOC5a)

# Couronne 5, lissage linéaire
GKLOC5c = CALC_G(THETA=_F(FISSURE=FF, DISCRETISATION="LINEAIRE"), RESULTAT=MEST, OPTION="K")

IMPR_TABLE(TABLE=GKLOC5c)

#
# --------------------------------------------------------------------
#            TESTS DES RESULTATS DE K1 LOCAL                         #
# --------------------------------------------------------------------

K1_ref = 157730.0

TEST_TABLE(
    REFERENCE="ANALYTIQUE",
    PRECISION=0.04,
    VALE_CALC=162581.3457783218,
    VALE_REFE=K1_ref,
    NOM_PARA="K1",
    TYPE_TEST="MAX",
    TABLE=GKLOC1a,
)

TEST_TABLE(
    REFERENCE="ANALYTIQUE",
    PRECISION=0.03,
    VALE_CALC=162063.66542130895,
    VALE_REFE=K1_ref,
    NOM_PARA="K1",
    TYPE_TEST="MIN",
    TABLE=GKLOC1a,
)

TEST_TABLE(
    REFERENCE="ANALYTIQUE",
    PRECISION=0.08,
    VALE_CALC=162258.1483190046,
    VALE_REFE=K1_ref,
    NOM_PARA="K1",
    TYPE_TEST="MAX",
    TABLE=GKLOC1c,
)

TEST_TABLE(
    REFERENCE="ANALYTIQUE",
    PRECISION=0.03,
    VALE_CALC=162006.34001193917,
    VALE_REFE=K1_ref,
    NOM_PARA="K1",
    TYPE_TEST="MIN",
    TABLE=GKLOC1c,
)


# couronne 2 : fortes oscillations avec lissage linéaire
TEST_TABLE(
    REFERENCE="ANALYTIQUE",
    PRECISION=0.075,
    VALE_CALC=168938.68292222824,
    VALE_REFE=K1_ref,
    NOM_PARA="K1",
    TYPE_TEST="MAX",
    TABLE=GKLOC2a,
)

TEST_TABLE(
    REFERENCE="ANALYTIQUE",
    PRECISION=0.06,
    VALE_CALC=165873.44131328887,
    VALE_REFE=K1_ref,
    NOM_PARA="K1",
    TYPE_TEST="MIN",
    TABLE=GKLOC2a,
)

TEST_TABLE(
    REFERENCE="ANALYTIQUE",
    PRECISION=0.15,
    VALE_CALC=166598.94907749325,
    VALE_REFE=K1_ref,
    NOM_PARA="K1",
    TYPE_TEST="MAX",
    TABLE=GKLOC2c,
)

TEST_TABLE(
    REFERENCE="ANALYTIQUE",
    PRECISION=0.06,
    VALE_CALC=166113.85549512997,
    VALE_REFE=K1_ref,
    NOM_PARA="K1",
    TYPE_TEST="MIN",
    TABLE=GKLOC2c,
)

# couronne 3 : TRES fortes oscillations avec lissage linéaire
TEST_TABLE(
    REFERENCE="ANALYTIQUE",
    PRECISION=0.10,
    VALE_CALC=172607.6903516786,
    VALE_REFE=K1_ref,
    NOM_PARA="K1",
    TYPE_TEST="MAX",
    TABLE=GKLOC3a,
)

TEST_TABLE(
    REFERENCE="ANALYTIQUE",
    PRECISION=0.04,
    VALE_CALC=163804.5182424186,
    VALE_REFE=K1_ref,
    NOM_PARA="K1",
    TYPE_TEST="MIN",
    TABLE=GKLOC3a,
)

TEST_TABLE(
    REFERENCE="ANALYTIQUE",
    PRECISION=0.34,
    VALE_CALC=169493.85587843342,
    VALE_REFE=K1_ref,
    NOM_PARA="K1",
    TYPE_TEST="MAX",
    TABLE=GKLOC3c,
)

TEST_TABLE(
    REFERENCE="ANALYTIQUE",
    PRECISION=0.07,
    VALE_CALC=159504.53629188376,
    VALE_REFE=K1_ref,
    NOM_PARA="K1",
    TYPE_TEST="MIN",
    TABLE=GKLOC3c,
)

# couronne 5 :
TEST_TABLE(
    REFERENCE="ANALYTIQUE",
    PRECISION=0.09,
    VALE_CALC=165584.45173471418,
    VALE_REFE=K1_ref,
    NOM_PARA="K1",
    TYPE_TEST="MAX",
    TABLE=GKLOC5a,
)

TEST_TABLE(
    REFERENCE="ANALYTIQUE",
    PRECISION=0.05,
    VALE_CALC=164490.85533850145,
    VALE_REFE=K1_ref,
    NOM_PARA="K1",
    TYPE_TEST="MIN",
    TABLE=GKLOC5a,
)

TEST_TABLE(
    REFERENCE="ANALYTIQUE",
    PRECISION=0.10,
    VALE_CALC=164731.097139408,
    VALE_REFE=K1_ref,
    NOM_PARA="K1",
    TYPE_TEST="MAX",
    TABLE=GKLOC5c,
)

TEST_TABLE(
    REFERENCE="ANALYTIQUE",
    PRECISION=0.05,
    VALE_CALC=164556.20382962376,
    VALE_REFE=K1_ref,
    NOM_PARA="K1",
    TYPE_TEST="MIN",
    TABLE=GKLOC5c,
)

FIN()
#
