# coding=utf-8
# --------------------------------------------------------------------
# Copyright (C) 1991 - 2025 - EDF R&D - www.code-aster.org
# This file is part of code_aster.
#
# code_aster is free software: you can redistribute it and/or modify
# it under the terms of the GNU General Public License as published by
# the Free Software Foundation, either version 3 of the License, or
# (at your option) any later version.
#
# code_aster is distributed in the hope that it will be useful,
# but WITHOUT ANY WARRANTY; without even the implied warranty of
# MERCHANTABILITY or FITNESS FOR A PARTICULAR PURPOSE.  See the
# GNU General Public License for more details.
#
# You should have received a copy of the GNU General Public License
# along with code_aster.  If not, see <http://www.gnu.org/licenses/>.
# --------------------------------------------------------------------

# PLAQUE RECTANGULAIRE MINCE ENCASTREE SOUMISE
# A UN GRADIENT THERMIQUE DANS L'EPAISSEUR
# ET MODELISEE EN DKT- DKQ - DST - DSQ - Q4G
# ====================================================================

DEBUT(CODE="OUI", DEBUG=_F(SDVERI="OUI"))

MA = LIRE_MAILLAGE(FORMAT="MED")

# ====================================================================
MAT = DEFI_MATERIAU(ELAS=_F(E=2.0e11, NU=0.3, ALPHA=1.0e-5))


# ====================================================================

MOD = AFFE_MODELE(
    MAILLAGE=MA,
    AFFE=(
        _F(GROUP_MA=("STRIA1", "SQUA11"), PHENOMENE="MECANIQUE", MODELISATION="DST"),
        _F(GROUP_MA=("STRIA2", "SQUA12"), PHENOMENE="MECANIQUE", MODELISATION="DKT"),
        _F(GROUP_MA=("SQUA2", "STRIA3"), PHENOMENE="MECANIQUE", MODELISATION="Q4G"),
    ),
)

CARA = AFFE_CARA_ELEM(
    MODELE=MOD,
    COQUE=_F(GROUP_MA=("STRIA1", "SQUA11", "STRIA2", "SQUA12", "SQUA2", "STRIA3"), EPAIS=0.01),
)

TEMP = CREA_CHAMP(
    OPERATION="AFFE",
    TYPE_CHAM="NOEU_TEMP_R",
    MAILLAGE=MA,
    AFFE=_F(TOUT="OUI", NOM_CMP=("TEMP_MIL", "TEMP_INF", "TEMP_SUP"), VALE=(50.0, 0.0, 100.0)),
)

TEMPLIN = CREA_RESU(
    OPERATION="AFFE", TYPE_RESU="EVOL_THER", AFFE=_F(NOM_CHAM="TEMP", CHAM_GD=TEMP, INST=-1.0)
)
TEMPER = CREA_RESU(
    OPERATION="PREP_VARC",
    TYPE_RESU="EVOL_THER",
    PREP_VARC=_F(MODELE=MOD, CARA_ELEM=CARA, EVOL_THER=TEMPLIN),
)

CHMAT = AFFE_MATERIAU(
    MAILLAGE=MA,
    AFFE=_F(TOUT="OUI", MATER=MAT),
    AFFE_VARC=_F(TOUT="OUI", EVOL=TEMPER, NOM_VARC="TEMP", NOM_CHAM="TEMP", VALE_REF=0.0),
)
CH1 = AFFE_CHAR_MECA(
    MODELE=MOD,
    DDL_IMPO=_F(
        GROUP_NO=("AB", "BC", "CD", "DA"), DX=0.0, DY=0.0, DZ=0.0, DRX=0.0, DRY=0.0, DRZ=0.0
    ),
)

MESTAT = MECA_STATIQUE(MODELE=MOD, EXCIT=_F(CHARGE=CH1), CHAM_MATER=CHMAT, CARA_ELEM=CARA)

MESTAT = CALC_CHAMP(reuse=MESTAT, RESULTAT=MESTAT, FORCE="FORC_NODA")

MESTAT = CALC_CHAMP(reuse=MESTAT, RESULTAT=MESTAT, CONTRAINTE=("SIGM_ELNO"))
MESTAT = CALC_CHAMP(reuse=MESTAT, RESULTAT=MESTAT, DEFORMATION=("EPVC_ELGA", "EPVC_ELNO"))
MESTAT = CALC_CHAMP(reuse=MESTAT, RESULTAT=MESTAT, DEFORMATION=("EPME_ELGA", "EPME_ELNO"))


TEST_RESU(
    RESU=(
        _F(
            NUME_ORDRE=1,
            REFERENCE="ANALYTIQUE",
            RESULTAT=MESTAT,
            NOM_CHAM="FORC_NODA",
            GROUP_NO="N104",
            NOM_CMP="DRX",
            VALE_CALC=-95.238097215,
            VALE_REFE=-95.238100000000003,
            CRITERE="ABSOLU",
            PRECISION=3.0000000000000001e-05,
        ),
        _F(
            NUME_ORDRE=1,
            REFERENCE="ANALYTIQUE",
            RESULTAT=MESTAT,
            NOM_CHAM="FORC_NODA",
            GROUP_NO="N104",
            NOM_CMP="DRY",
            VALE_CALC=71.428576185,
            VALE_REFE=71.428600000000003,
            CRITERE="ABSOLU",
            PRECISION=3.0000000000000001e-05,
        ),
        _F(
            NUME_ORDRE=1,
            REFERENCE="ANALYTIQUE",
            RESULTAT=MESTAT,
            NOM_CHAM="FORC_NODA",
            GROUP_NO="N260",
            NOM_CMP="DRX",
            VALE_CALC=-95.238097924,
            VALE_REFE=-95.238100000000003,
            CRITERE="ABSOLU",
            PRECISION=3.0000000000000001e-05,
        ),
        _F(
            NUME_ORDRE=1,
            REFERENCE="ANALYTIQUE",
            RESULTAT=MESTAT,
            NOM_CHAM="FORC_NODA",
            GROUP_NO="N260",
            NOM_CMP="DRY",
            VALE_CALC=71.428576717,
            VALE_REFE=71.428600000000003,
            CRITERE="ABSOLU",
            PRECISION=3.0000000000000001e-05,
        ),
        _F(
            NUME_ORDRE=1,
            REFERENCE="ANALYTIQUE",
            RESULTAT=MESTAT,
            NOM_CHAM="FORC_NODA",
            GROUP_NO="N270",
            NOM_CMP="DRX",
            VALE_CALC=-95.238096505,
            VALE_REFE=-95.238100000000003,
            CRITERE="ABSOLU",
            PRECISION=3.0000000000000001e-05,
        ),
        _F(
            NUME_ORDRE=1,
            REFERENCE="ANALYTIQUE",
            RESULTAT=MESTAT,
            NOM_CHAM="FORC_NODA",
            GROUP_NO="N270",
            NOM_CMP="DRY",
            VALE_CALC=71.428575652,
            VALE_REFE=71.428600000000003,
            CRITERE="ABSOLU",
            PRECISION=3.0000000000000001e-05,
        ),
        _F(
            NUME_ORDRE=1,
            REFERENCE="ANALYTIQUE",
            RESULTAT=MESTAT,
            NOM_CHAM="FORC_NODA",
            GROUP_NO="N8",
            NOM_CMP="DRX",
            VALE_CALC=-71.428575652,
            VALE_REFE=-71.428600000000003,
            CRITERE="ABSOLU",
            PRECISION=3.0000000000000001e-05,
        ),
        _F(
            NUME_ORDRE=1,
            REFERENCE="ANALYTIQUE",
            RESULTAT=MESTAT,
            NOM_CHAM="FORC_NODA",
            GROUP_NO="N8",
            NOM_CMP="DRY",
            VALE_CALC=-95.238096505,
            VALE_REFE=-95.238100000000003,
            CRITERE="ABSOLU",
            PRECISION=3.0000000000000001e-05,
        ),
        _F(
            NUME_ORDRE=1,
            REFERENCE="ANALYTIQUE",
            RESULTAT=MESTAT,
            NOM_CHAM="FORC_NODA",
            GROUP_NO="N21",
            NOM_CMP="DRX",
            VALE_CALC=-71.428575652,
            VALE_REFE=-71.428600000000003,
            CRITERE="ABSOLU",
            PRECISION=3.0000000000000001e-05,
        ),
        _F(
            NUME_ORDRE=1,
            REFERENCE="ANALYTIQUE",
            RESULTAT=MESTAT,
            NOM_CHAM="FORC_NODA",
            GROUP_NO="N21",
            NOM_CMP="DRY",
            VALE_CALC=-95.238096505,
            VALE_REFE=-95.238100000000003,
            CRITERE="ABSOLU",
            PRECISION=3.0000000000000001e-05,
        ),
        _F(
            NUME_ORDRE=1,
            REFERENCE="ANALYTIQUE",
            RESULTAT=MESTAT,
            NOM_CHAM="FORC_NODA",
            GROUP_NO="N102",
            NOM_CMP="DRX",
            VALE_CALC=95.238097215,
            VALE_REFE=95.238100000000003,
            CRITERE="ABSOLU",
            PRECISION=3.0000000000000001e-05,
        ),
        _F(
            NUME_ORDRE=1,
            REFERENCE="ANALYTIQUE",
            RESULTAT=MESTAT,
            NOM_CHAM="FORC_NODA",
            GROUP_NO="N102",
            NOM_CMP="DRY",
            VALE_CALC=-71.428576185,
            VALE_REFE=-71.428600000000003,
            CRITERE="ABSOLU",
            PRECISION=3.0000000000000001e-05,
        ),
        _F(
            NUME_ORDRE=1,
            REFERENCE="ANALYTIQUE",
            RESULTAT=MESTAT,
            NOM_CHAM="FORC_NODA",
            GROUP_NO="N466",
            NOM_CMP="DRX",
            VALE_CALC=95.238097924,
            VALE_REFE=95.238100000000003,
            CRITERE="ABSOLU",
            PRECISION=3.0000000000000001e-05,
        ),
        _F(
            NUME_ORDRE=1,
            REFERENCE="ANALYTIQUE",
            RESULTAT=MESTAT,
            NOM_CHAM="FORC_NODA",
            GROUP_NO="N466",
            NOM_CMP="DRY",
            VALE_CALC=-71.428576717,
            VALE_REFE=-71.428600000000003,
            CRITERE="ABSOLU",
            PRECISION=3.0000000000000001e-05,
        ),
        _F(
            NUME_ORDRE=1,
            REFERENCE="ANALYTIQUE",
            RESULTAT=MESTAT,
            NOM_CHAM="FORC_NODA",
            GROUP_NO="N544",
            NOM_CMP="DRX",
            VALE_CALC=95.238096505,
            VALE_REFE=95.238100000000003,
            CRITERE="ABSOLU",
            PRECISION=3.0000000000000001e-05,
        ),
        _F(
            NUME_ORDRE=1,
            REFERENCE="ANALYTIQUE",
            RESULTAT=MESTAT,
            NOM_CHAM="FORC_NODA",
            GROUP_NO="N544",
            NOM_CMP="DRY",
            VALE_CALC=-71.428575652,
            VALE_REFE=-71.428600000000003,
            CRITERE="ABSOLU",
            PRECISION=3.0000000000000001e-05,
        ),
        _F(
            NUME_ORDRE=1,
            REFERENCE="ANALYTIQUE",
            RESULTAT=MESTAT,
            NOM_CHAM="FORC_NODA",
            GROUP_NO="N477",
            NOM_CMP="DRX",
            VALE_CALC=71.428575652,
            VALE_REFE=71.428600000000003,
            CRITERE="ABSOLU",
            PRECISION=3.0000000000000001e-05,
        ),
        _F(
            NUME_ORDRE=1,
            REFERENCE="ANALYTIQUE",
            RESULTAT=MESTAT,
            NOM_CHAM="FORC_NODA",
            GROUP_NO="N477",
            NOM_CMP="DRY",
            VALE_CALC=95.238096505,
            VALE_REFE=95.238100000000003,
            CRITERE="ABSOLU",
            PRECISION=3.0000000000000001e-05,
        ),
        _F(
            NUME_ORDRE=1,
            REFERENCE="ANALYTIQUE",
            RESULTAT=MESTAT,
            NOM_CHAM="FORC_NODA",
            GROUP_NO="N666",
            NOM_CMP="DRX",
            VALE_CALC=71.428575652,
            VALE_REFE=71.428600000000003,
            CRITERE="ABSOLU",
            PRECISION=3.0000000000000001e-05,
        ),
        _F(
            NUME_ORDRE=1,
            REFERENCE="ANALYTIQUE",
            RESULTAT=MESTAT,
            NOM_CHAM="FORC_NODA",
            GROUP_NO="N666",
            NOM_CMP="DRY",
            VALE_CALC=95.238096505,
            VALE_REFE=95.238100000000003,
            CRITERE="ABSOLU",
            PRECISION=3.0000000000000001e-05,
        ),
    )
)

FIN()
#
