# coding=utf-8
# --------------------------------------------------------------------
# Copyright (C) 1991 - 2025 - EDF R&D - www.code-aster.org
# This file is part of code_aster.
#
# code_aster is free software: you can redistribute it and/or modify
# it under the terms of the GNU General Public License as published by
# the Free Software Foundation, either version 3 of the License, or
# (at your option) any later version.
#
# code_aster is distributed in the hope that it will be useful,
# but WITHOUT ANY WARRANTY; without even the implied warranty of
# MERCHANTABILITY or FITNESS FOR A PARTICULAR PURPOSE.  See the
# GNU General Public License for more details.
#
# You should have received a copy of the GNU General Public License
# along with code_aster.  If not, see <http://www.gnu.org/licenses/>.
# --------------------------------------------------------------------

#  MODELISATION A : DKT + GRILLE_EXCENTRE

DEBUT(CODE="OUI", ERREUR=_F(ALARME="EXCEPTION"), DEBUG=_F(SDVERI="OUI"))

# ------------------------------------------------------------------------------
# VALIDATION DU CHARGEMENT THERMIQUE SUR DES GRILLES EXCENTREES (EX BETON ARME)
# ------------------------------------------------------------------------------

MAILL1 = LIRE_MAILLAGE(FORMAT="ASTER")

MAILTOT = CREA_MAILLAGE(
    MAILLAGE=MAILL1, CREA_MAILLE=_F(NOM="GXXXXXX_GEOA", GROUP_MA="GXXXXXX_GEOB")
)

MAILTOT = DEFI_GROUP(
    reuse=MAILTOT,
    MAILLAGE=MAILTOT,
    CREA_GROUP_MA=(_F(NOM="AMA1", MAILLE="M2"), _F(NOM="MA1", MAILLE="M1")),
    CREA_GROUP_NO=(_F(NOM="NO4", NOEUD="N4"), _F(NOM="NO2", NOEUD="N2"), _F(NOM="NO1", NOEUD="N1")),
)

#
# -----------------------------------------------------
# DEFINITION DES MATERIAUX
# -----------------------------------------------------
#
BETON = DEFI_MATERIAU(ELAS=_F(E=3.0e10, NU=0.0, ALPHA=1.0e-5, RHO=0.0))

ACIER = DEFI_MATERIAU(ELAS=_F(E=2.0e11, NU=0.0, ALPHA=1.0e-5, RHO=0.0))

#
# -------------------------------------------------
# AFFECTATION DES MODELES
# -------------------------------------------------
#
LEMOD = AFFE_MODELE(
    MAILLAGE=MAILTOT,
    AFFE=(
        _F(GROUP_MA="GXXXXXX_GEOB", PHENOMENE="MECANIQUE", MODELISATION="DKT"),
        _F(GROUP_MA="GXXXXXX_GEOA", PHENOMENE="MECANIQUE", MODELISATION="GRILLE_EXCENTRE"),
    ),
)

# -------------------------------------------------
# AFFECTATION DES CARACTERISTIQUES
# -------------------------------------------------
#
LACAR = AFFE_CARA_ELEM(
    MODELE=LEMOD,
    COQUE=_F(GROUP_MA="GXXXXXX_GEOB", EPAIS=0.2, COQUE_NCOU=3),
    GRILLE=_F(GROUP_MA="GXXXXXX_GEOA", SECTION=0.01, ANGL_REP_1=(0, 0), EXCENTREMENT=-0.15),
)

# -------------------------------------------------
# CONSTRUCTION DU CHAMP DE TEMPERATURE
# ------------------------------------------------
#
# LA TEMPERATURE DE REFERENCE TO EST COMMUNE AUX DEUX MAILLES
# IL FAUT TOUT FAIRE EN DOUBLE ACIER ET BETON) CAR LES MAILLES S'APPUIENT SUR LES MEMES NOEUDS

T0A = CREA_CHAMP(
    OPERATION="AFFE",
    TYPE_CHAM="NOEU_TEMP_R",
    MAILLAGE=MAILTOT,
    AFFE=(_F(GROUP_MA="GXXXXXX_GEOA", NOM_CMP=("TEMP",), VALE=(20.0,)),),
)
T1A = CREA_CHAMP(
    OPERATION="AFFE",
    TYPE_CHAM="NOEU_TEMP_R",
    MAILLAGE=MAILTOT,
    AFFE=(_F(GROUP_MA="GXXXXXX_GEOA", NOM_CMP=("TEMP",), VALE=(120.0,)),),
)
T0B = CREA_CHAMP(
    OPERATION="AFFE",
    TYPE_CHAM="NOEU_TEMP_R",
    MAILLAGE=MAILTOT,
    AFFE=(
        _F(
            GROUP_MA="GXXXXXX_GEOB",
            NOM_CMP=("TEMP_INF", "TEMP_MIL", "TEMP_SUP"),
            VALE=(20.0, 20.0, 20.0),
        ),
    ),
)
T1B = CREA_CHAMP(
    OPERATION="AFFE",
    TYPE_CHAM="NOEU_TEMP_R",
    MAILLAGE=MAILTOT,
    AFFE=(
        _F(
            GROUP_MA="GXXXXXX_GEOB",
            NOM_CMP=("TEMP_INF", "TEMP_MIL", "TEMP_SUP"),
            VALE=(80.0, 50.0, 30.0),
        ),
    ),
)

LATEMPA = CREA_RESU(
    OPERATION="AFFE",
    TYPE_RESU="EVOL_THER",
    AFFE=(_F(NOM_CHAM="TEMP", CHAM_GD=T0A, INST=0.0), _F(NOM_CHAM="TEMP", CHAM_GD=T1A, INST=1.0)),
)

LATEMPB = CREA_RESU(
    OPERATION="AFFE",
    TYPE_RESU="EVOL_THER",
    AFFE=(_F(NOM_CHAM="TEMP", CHAM_GD=T0B, INST=0.0), _F(NOM_CHAM="TEMP", CHAM_GD=T1B, INST=1.0)),
)

TEMPERB = CREA_RESU(
    OPERATION="PREP_VARC",
    TYPE_RESU="EVOL_THER",
    PREP_VARC=_F(
        MODELE=LEMOD,
        # GROUP_MA=('GXXXXXX_GEOB', 'GXXXXXX_GEOA', ),
        GROUP_MA=("GXXXXXX_GEOB",),
        CARA_ELEM=LACAR,
        EVOL_THER=LATEMPB,
    ),
)

#
# -------------------------------------------------
# AFFECTATION DES MATERIAUX
# -------------------------------------------------
#
MATAF = AFFE_MATERIAU(
    INFO=2,
    MAILLAGE=MAILTOT,
    AFFE=(_F(GROUP_MA=("GXXXXXX_GEOA",), MATER=ACIER), _F(GROUP_MA=("GXXXXXX_GEOB"), MATER=BETON)),
    AFFE_VARC=(
        _F(GROUP_MA="GXXXXXX_GEOA", EVOL=LATEMPA, NOM_VARC="TEMP", NOM_CHAM="TEMP", VALE_REF=20.0),
        _F(GROUP_MA="GXXXXXX_GEOB", EVOL=TEMPERB, NOM_VARC="TEMP", NOM_CHAM="TEMP", VALE_REF=20.0),
    ),
)

# ----------------------------------------------
# CHARGEMENT
# ----------------------------------------------
#
ZCHM = AFFE_CHAR_MECA(
    MODELE=LEMOD,
    DDL_IMPO=(
        _F(GROUP_NO=("NO1", "NO4"), DX=0.0, DZ=0.0, DRY=0.0),
        _F(GROUP_NO=("NO1", "NO2"), DY=0.0),
    ),
)

PES = AFFE_CHAR_MECA(MODELE=LEMOD, PESANTEUR=_F(GRAVITE=9.81, DIRECTION=(0, 0, -1)))
#
# ----------------------------------------------
# CALCUL
# ----------------------------------------------
#
ZLIST = DEFI_LIST_REEL(DEBUT=0.0, INTERVALLE=_F(JUSQU_A=1.0, NOMBRE=1))

LEDEP = STAT_NON_LINE(
    MODELE=LEMOD,
    CHAM_MATER=MATAF,
    CARA_ELEM=LACAR,
    EXCIT=(_F(CHARGE=ZCHM), _F(CHARGE=PES)),
    COMPORTEMENT=_F(RELATION="ELAS"),
    INCREMENT=_F(LIST_INST=ZLIST),
    NEWTON=_F(MATRICE="TANGENTE", REAC_ITER=10),
    CONVERGENCE=_F(RESI_GLOB_MAXI=1.0e-3, ITER_GLOB_MAXI=30),
)


LaTemp = CALC_CHAMP(RESULTAT=LEDEP, CARA_ELEM=LACAR, SOUS_POINT="TEMP_ELGA")
TEST_RESU(
    RESU=(
        # COQUE Couche inf
        _F(
            NUME_ORDRE=1,
            REFERENCE="ANALYTIQUE",
            POINT=1,
            SOUS_POINT=1,
            RESULTAT=LaTemp,
            NOM_CHAM="TEMP_ELGA",
            NOM_CMP="TEMP",
            VALE_CALC=80.0,
            VALE_REFE=80.0,
            GROUP_MA="MA1",
        ),
        # COQUE Couche moy
        _F(
            NUME_ORDRE=1,
            REFERENCE="ANALYTIQUE",
            POINT=1,
            SOUS_POINT=5,
            RESULTAT=LaTemp,
            NOM_CHAM="TEMP_ELGA",
            NOM_CMP="TEMP",
            VALE_CALC=50.00,
            VALE_REFE=50.0,
            GROUP_MA="MA1",
        ),
        # COQUE Coche sup
        _F(
            NUME_ORDRE=1,
            REFERENCE="ANALYTIQUE",
            POINT=1,
            SOUS_POINT=9,
            RESULTAT=LaTemp,
            NOM_CHAM="TEMP_ELGA",
            NOM_CMP="TEMP",
            VALE_CALC=30.00,
            VALE_REFE=30.0,
            GROUP_MA="MA1",
        ),
        # GRILLE_EXCENTRE
        _F(
            NUME_ORDRE=1,
            REFERENCE="ANALYTIQUE",
            POINT=1,
            SOUS_POINT=1,
            RESULTAT=LaTemp,
            NOM_CHAM="TEMP_ELGA",
            NOM_CMP="TEMP",
            VALE_CALC=120.00,
            VALE_REFE=120.0,
            GROUP_MA="AMA1",
        ),
    )
)


"""
IMPR_RESU(FORMAT='RESULTAT', RESU=_F(RESULTAT=LaTemp,), )

IMPR_RESU(FORMAT='MED',UNITE=80, RESU=_F(RESULTAT=LaTemp, NOM_CHAM='TEMP_ELGA', CARA_ELEM=LACAR,), )
"""

FIN()
