# coding=utf-8
# --------------------------------------------------------------------
# Copyright (C) 1991 - 2025 - EDF R&D - www.code-aster.org
# This file is part of code_aster.
#
# code_aster is free software: you can redistribute it and/or modify
# it under the terms of the GNU General Public License as published by
# the Free Software Foundation, either version 3 of the License, or
# (at your option) any later version.
#
# code_aster is distributed in the hope that it will be useful,
# but WITHOUT ANY WARRANTY; without even the implied warranty of
# MERCHANTABILITY or FITNESS FOR A PARTICULAR PURPOSE.  See the
# GNU General Public License for more details.
#
# You should have received a copy of the GNU General Public License
# along with code_aster.  If not, see <http://www.gnu.org/licenses/>.
# --------------------------------------------------------------------

# ( AVEC PLASTICITE DE TRANSFORMATION)
# CAS_TEST__: HSNV103B
# HSNV103B
# ESSAI DE TYPE DATOH
# MODELISATION D_PLAN_META  (ELEMENTS DPLAN METALLURGIQUES)
#             13 NOEUDS  2 MAILLES QUAD8
# ======================================================================

DEBUT(
    CODE="OUI",
    ERREUR=_F(ALARME="EXCEPTION"),
    BASE=_F(FICHIER="GLOBALE", LONG_REPE=7000),
    DEBUG=_F(SDVERI="NON"),
)
# SDVERI='NON' car la verification est trop couteuse en CPU

MAIL = LIRE_MAILLAGE(FORMAT="ASTER")

TRCMNDA = DEFI_TRC(
    HIST_EXP=(
        _F(
            VALE=(
                -1.106e03,
                1.100e01,
                0.000e00,
                0.000e00,
                0.000e00,
                0.000e00,
                0.000e00,
                0.000e00,
                0.000e00,
                0.000e00,
                0.000e00,
                8.360e02,
                0.000e00,
                0.000e00,
                0.000e00,
                6.001e02,
                0.000e00,
                0.000e00,
                1.000e00,
                3.450e02,
            )
        ),
        _F(
            VALE=(
                -2.206e03,
                1.100e01,
                0.000e00,
                0.000e00,
                0.000e00,
                0.000e00,
                0.000e00,
                0.000e00,
                0.000e00,
                0.000e00,
                0.000e00,
                8.360e02,
                0.000e00,
                0.000e00,
                0.000e00,
                6.001e02,
                0.000e00,
                0.000e00,
                1.000e00,
                3.450e02,
            )
        ),
    ),
    TEMP_MS=_F(SEUIL=4.500e-01, AKM=-3.125e01, BKM=1.406e01, TPLM=-3.497e03),
)

ACIER = DEFI_MATERIAU(
    THER=_F(RHO_CP=2000000.0, LAMBDA=9999.9),
    META_ACIER=_F(
        TRC=TRCMNDA,
        AR3=830.0,
        ALPHA=-0.0300,
        MS0=200.0,
        AC1=724.0,
        AC3=846.0,
        TAUX_1=0.34,
        TAUX_3=0.34,
    ),
)

CHMAT = AFFE_MATERIAU(MAILLAGE=MAIL, AFFE=_F(TOUT="OUI", MATER=ACIER))

MOTH = AFFE_MODELE(MAILLAGE=MAIL, AFFE=_F(TOUT="OUI", MODELISATION="PLAN", PHENOMENE="THERMIQUE"))

TIMPO = DEFI_FONCTION(
    NOM_PARA="INST",
    NOM_RESU="TEMP",
    VALE=(0.0, 900.0, 180.0, 0.0),
    PROL_GAUCHE="LINEAIRE",
    PROL_DROITE="LINEAIRE",
    INTERPOL="LIN",
)

CHTH = AFFE_CHAR_THER_F(MODELE=MOTH, TEMP_IMPO=_F(TOUT="OUI", TEMP=TIMPO))

LR8 = DEFI_LIST_REEL(DEBUT=0.0, INTERVALLE=_F(JUSQU_A=176.0, NOMBRE=88))

DEFLISTT = DEFI_LIST_INST(DEFI_LIST=_F(LIST_INST=LR8))

PHASINIT = CREA_CHAMP(
    OPERATION="AFFE",
    TYPE_CHAM="CART_VAR2_R",
    MAILLAGE=MAIL,
    AFFE=_F(
        TOUT="OUI",
        NOM_CMP=("V1", "V2", "V3", "V4", "V5", "V6", "V7"),
        VALE=(0.0, 0.0, 0.0, 0.0, 1.0, 0.0, 10.0),
    ),
)

TEMPE = THER_LINEAIRE(
    MODELE=MOTH,
    CHAM_MATER=CHMAT,
    PARM_THETA=0.57,
    EXCIT=_F(CHARGE=CHTH),
    INCREMENT=_F(LIST_INST=DEFLISTT),
    ETAT_INIT=_F(VALE=900.0),
)

TEMPE = CALC_META(
    reuse=TEMPE,
    RESULTAT=TEMPE,
    ETAT_INIT=_F(META_INIT_ELNO=PHASINIT),
    COMPORTEMENT=_F(RELATION="ACIER", TOUT="OUI"),
    OPTION="META_ELNO",
)

FBM1 = DEFI_FONCTION(
    NOM_PARA="TEMP",
    PROL_DROITE="LINEAIRE",
    PROL_GAUCHE="LINEAIRE",
    VALE=(
        0.0,
        4353.14e6,
        20.0,
        4257.40e6,
        40.0,
        4161.57e6,
        60.0,
        4065.64e6,
        80.0,
        3969.62e6,
        100.0,
        3873.50e6,
        120.0,
        3777.29e6,
        140.0,
        3680.98e6,
        160.0,
        3584.58e6,
        180.0,
        3488.09e6,
# ... 72 like lines cut
    ),
)

FBM2 = DEFI_FONCTION(
    NOM_PARA="TEMP",
    PROL_DROITE="LINEAIRE",
    PROL_GAUCHE="LINEAIRE",
    VALE=(0.0, 80.0e6, 900.0, 530.0e6),
)

AUS1 = DEFI_FONCTION(
    NOM_PARA="TEMP",
    PROL_DROITE="LINEAIRE",
    PROL_GAUCHE="LINEAIRE",
    VALE=(
        0.0,
        5589.31e6,
        20.0,
        5494.77e6,
        40.0,
        5400.14e6,
        60.0,
        5305.43e6,
        80.0,
        5210.62e6,
        100.0,
        5115.71e6,
        120.0,
        5020.72e6,
        140.0,
        4925.63e6,
        160.0,
        4830.45e6,
        180.0,
        4735.17e6,
# ... 72 like lines cut
    ),
)

AUS2 = DEFI_FONCTION(
    NOM_PARA="TEMP",
    PROL_DROITE="LINEAIRE",
    PROL_GAUCHE="LINEAIRE",
    VALE=(0.0, -50.0e6, 900.0, 400.0e6),
)

ALP1 = DEFI_FONCTION(
    NOM_PARA="TEMP",
    PROL_DROITE="CONSTANT",
    PROL_GAUCHE="CONSTANT",
    VALE=(0.0, 15.0e-6, 900.0, 15.0e-6),
)

ALP2 = DEFI_FONCTION(
    NOM_PARA="TEMP",
    PROL_DROITE="CONSTANT",
    PROL_GAUCHE="CONSTANT",
    VALE=(0.0, 23.5e-6, 900.0, 23.5e-6),
)

FPRIM = DEFI_FONCTION(
    NOM_PARA="META", PROL_DROITE="LINEAIRE", PROL_GAUCHE="LINEAIRE", VALE=(0.0, 2.0, 1.0, 0.0)
)

FMEL = DEFI_FONCTION(
    NOM_PARA="META", PROL_DROITE="CONSTANT", PROL_GAUCHE="CONSTANT", VALE=(0.0, 0.0, 1.0, 1.0)
)

YOUNG = DEFI_CONSTANTE(VALE=200000.0e6)

NU = DEFI_CONSTANTE(VALE=0.3)

ACIER2 = DEFI_MATERIAU(
    ELAS_META_FO=_F(
        E=YOUNG,
        NU=NU,
        F_ALPHA=ALP1,
        C_ALPHA=ALP2,
        PHASE_REFE="CHAUD",
        EPSF_EPSC_TREF=2.52e-3,
        F1_SY=FBM2,
        F2_SY=FBM2,
        F3_SY=FBM2,
        F4_SY=FBM2,
        C_SY=AUS2,
        SY_MELANGE=FMEL,
        TEMP_DEF_ALPHA=900.0,
    ),
    META_ECRO_LINE=_F(
        F1_D_SIGM_EPSI=FBM1,
        F2_D_SIGM_EPSI=FBM1,
        F3_D_SIGM_EPSI=FBM1,
        F4_D_SIGM_EPSI=FBM1,
        C_D_SIGM_EPSI=AUS1,
    ),
    META_PT=_F(
        F1_K=0.0,
        F2_K=0.0,
        F3_K=1.0e-10,
        F4_K=1.0e-10,
        F1_D_F_META=FPRIM,
        F2_D_F_META=FPRIM,
        F3_D_F_META=FPRIM,
        F4_D_F_META=FPRIM,
    ),
)

CM2 = AFFE_MATERIAU(
    MAILLAGE=MAIL,
    AFFE=_F(TOUT="OUI", MATER=ACIER2),
    AFFE_VARC=(
        _F(TOUT="OUI", EVOL=TEMPE, NOM_VARC="M_ACIER", NOM_CHAM="META_ELNO"),
        _F(TOUT="OUI", EVOL=TEMPE, NOM_VARC="TEMP", NOM_CHAM="TEMP", VALE_REF=900),
    ),
)

MO = AFFE_MODELE(MAILLAGE=MAIL, AFFE=_F(TOUT="OUI", PHENOMENE="MECANIQUE", MODELISATION="D_PLAN"))

CH_FO = AFFE_CHAR_MECA(
    MODELE=MO,
    DDL_IMPO=(
        _F(GROUP_NO="N4", DY=0.0, DX=0.0),
        _F(GROUP_NO="N2", DY=0.0),
        _F(GROUP_NO="N5", DY=0.0),
    ),
)

L_INST = DEFI_LIST_REEL(DEBUT=0.0, INTERVALLE=_F(JUSQU_A=176.0, NOMBRE=176))

DEFLISTM = DEFI_LIST_INST(DEFI_LIST=_F(LIST_INST=L_INST))

U = STAT_NON_LINE(
    MODELE=MO,
    CHAM_MATER=CM2,
    EXCIT=_F(CHARGE=CH_FO),
    COMPORTEMENT=_F(RELATION="META_P_IL_PT", RELATION_KIT=("ACIER",)),
    INCREMENT=_F(LIST_INST=DEFLISTM, NUME_INST_FIN=176),
    NEWTON=_F(MATRICE="TANGENTE", REAC_ITER=1),
    CONVERGENCE=_F(RESI_GLOB_RELA=1.0e-6, ITER_GLOB_MAXI=40),
)

U = CALC_CHAMP(
    reuse=U,
    RESULTAT=U,
    CONTRAINTE="SIGM_ELNO",
    VARI_INTERNE="VARI_ELNO",
    DEFORMATION=("EPSI_ELNO", "EPVC_ELNO", "EPME_ELNO", "EPSP_ELNO"),
)


TEST_RESU(
    RESU=(
        _F(
            INST=60.0,
            RESULTAT=U,
            NOM_CHAM="SIGM_ELNO",
            GROUP_NO="N13",
            NOM_CMP="SIZZ",
            VALE_CALC=2.6573366e08,
            VALE_REFE=2.65730000e8,
            REFERENCE="AUTRE_ASTER",
            PRECISION=2.0000000000000002e-05,
            CRITERE="RELATIF",
            GROUP_MA="M1",
        ),
        _F(
            INST=60.0,
            RESULTAT=U,
            NOM_CHAM="VARI_ELNO",
            GROUP_NO="N13",
            NOM_CMP="V5",
            VALE_CALC=5.7213317e-03,
            VALE_REFE=5.7213000000000003e-3,
            REFERENCE="AUTRE_ASTER",
            CRITERE="RELATIF",
            GROUP_MA="M1",
        ),
        _F(
            INST=60.0,
            RESULTAT=U,
            NOM_CHAM="EPSI_ELNO",
            GROUP_NO="N13",
            NOM_CMP="EPYY",
            VALE_CALC=-0.01030926634,
            VALE_REFE=-0.01030926634,
            REFERENCE="AUTRE_ASTER",
            PRECISION=2.0000000000000001e-4,
            CRITERE="RELATIF",
            GROUP_MA="M1",
        ),
        _F(
            INST=60.0,
            RESULTAT=U,
            NOM_CHAM="EPVC_ELNO",
            GROUP_NO="N13",
            NOM_CMP="EPTHER_L",
            VALE_CALC=-7.050000e-03,
            VALE_REFE=-7.050000e-03,
            REFERENCE="AUTRE_ASTER",
            CRITERE="RELATIF",
            GROUP_MA="M1",
        ),
        _F(
            INST=60.0,
            RESULTAT=U,
            NOM_CHAM="EPME_ELNO",
            GROUP_NO="N13",
            NOM_CMP="EPYY",
            VALE_CALC=-0.00325926634,
            VALE_REFE=-0.00325926634,
            REFERENCE="AUTRE_ASTER",
            PRECISION=2.0000000000000002e-05,
            CRITERE="RELATIF",
            GROUP_MA="M1",
        ),
        _F(
            INST=60.0,
            RESULTAT=U,
            NOM_CHAM="EPSP_ELNO",
            GROUP_NO="N13",
            NOM_CMP="EPYY",
            VALE_CALC=-0.00286066585,
            VALE_REFE=-0.00286066585,
            REFERENCE="AUTRE_ASTER",
            PRECISION=2.0000000000000002e-05,
            CRITERE="RELATIF",
            GROUP_MA="M1",
        ),
        #
        _F(
            INST=89.0,
            RESULTAT=U,
            NOM_CHAM="VARI_ELNO",
            GROUP_NO="N13",
            NOM_CMP="V5",
            VALE_CALC=5.7213317e-03,
            VALE_REFE=5.7213000000000003e-3,
            REFERENCE="AUTRE_ASTER",
            PRECISION=1.0000000000000001e-05,
            CRITERE="RELATIF",
            GROUP_MA="M1",
        ),
        _F(
            INST=89.0,
            RESULTAT=U,
            NOM_CHAM="SIGM_ELNO",
            GROUP_NO="N13",
            NOM_CMP="SIZZ",
            VALE_CALC=-1.354341566677e07,
            VALE_REFE=-1.3545000e7,
            REFERENCE="AUTRE_ASTER",
            PRECISION=4.0000000000000002e-4,
            CRITERE="RELATIF",
            GROUP_MA="M1",
        ),
        _F(
            INST=89.0,
            RESULTAT=U,
            NOM_CHAM="EPSI_ELNO",
            GROUP_NO="N13",
            NOM_CMP="EPYY",
            VALE_CALC=-0.010326238927231,
            VALE_REFE=-0.010325000000000001,
            REFERENCE="AUTRE_ASTER",
            PRECISION=2.0000000000000001e-4,
            CRITERE="RELATIF",
            GROUP_MA="M1",
        ),
        _F(
            INST=89.0,
            RESULTAT=U,
            NOM_CHAM="EPVC_ELNO",
            GROUP_NO="N13",
            NOM_CMP="EPTHER_L",
            VALE_CALC=-0.00687513034104,
            VALE_REFE=-0.00687513034104,
            REFERENCE="AUTRE_ASTER",
            CRITERE="RELATIF",
            GROUP_MA="M1",
        ),
        _F(
            INST=89.0,
            RESULTAT=U,
            NOM_CHAM="EPME_ELNO",
            GROUP_NO="N13",
            NOM_CMP="EPYY",
            VALE_CALC=-0.00345110858619,
            VALE_REFE=-0.00345110858619,
            REFERENCE="AUTRE_ASTER",
            PRECISION=2.0000000000000002e-05,
            CRITERE="RELATIF",
            GROUP_MA="M1",
        ),
        _F(
            INST=89.0,
            RESULTAT=U,
            NOM_CHAM="EPSP_ELNO",
            GROUP_NO="N13",
            NOM_CMP="EPYY",
            VALE_CALC=-0.00347142370969,
            VALE_REFE=-0.00347142370969,
            REFERENCE="AUTRE_ASTER",
            PRECISION=2.0000000000000002e-05,
            CRITERE="RELATIF",
            GROUP_MA="M1",
        ),
        #
        _F(
            INST=112.0,
            RESULTAT=U,
            NOM_CHAM="VARI_ELNO",
            GROUP_NO="N13",
            NOM_CMP="V3",
            VALE_CALC=5.7213317e-03,
            VALE_REFE=5.7213000000000003e-3,
            REFERENCE="AUTRE_ASTER",
            PRECISION=1.0000000000000001e-05,
            CRITERE="RELATIF",
            GROUP_MA="M1",
        ),
        _F(
            INST=112.0,
            RESULTAT=U,
            NOM_CHAM="EPSI_ELNO",
            GROUP_NO="N13",
            NOM_CMP="EPYY",
            VALE_CALC=-8.9213448967683e-03,
            VALE_REFE=-8.9196999999999992e-3,
            REFERENCE="AUTRE_ASTER",
            PRECISION=2.0000000000000001e-4,
            CRITERE="RELATIF",
            GROUP_MA="M1",
        ),
        _F(
            INST=112.0,
            RESULTAT=U,
            NOM_CHAM="SIGM_ELNO",
            GROUP_NO="N13",
            NOM_CMP="SIZZ",
            VALE_CALC=-1.0134489676825e08,
            VALE_REFE=-1.01390000e8,
            REFERENCE="AUTRE_ASTER",
            PRECISION=5.0000000000000001e-4,
            CRITERE="RELATIF",
            GROUP_MA="M1",
        ),
        _F(
            INST=112.0,
            RESULTAT=U,
            NOM_CHAM="EPVC_ELNO",
            GROUP_NO="N13",
            NOM_CMP="EPTHER_L",
            VALE_CALC=-0.00588,
            VALE_REFE=-0.00588,
            REFERENCE="AUTRE_ASTER",
            CRITERE="RELATIF",
            GROUP_MA="M1",
        ),
        _F(
            INST=112.0,
            RESULTAT=U,
            NOM_CHAM="EPME_ELNO",
            GROUP_NO="N13",
            NOM_CMP="EPYY",
            VALE_CALC=-0.00304134489406,
            VALE_REFE=-0.00304134489406,
            REFERENCE="AUTRE_ASTER",
            PRECISION=2.0000000000000002e-05,
            CRITERE="RELATIF",
            GROUP_MA="M1",
        ),
        _F(
            INST=112.0,
            RESULTAT=U,
            NOM_CHAM="EPSP_ELNO",
            GROUP_NO="N13",
            NOM_CMP="EPYY",
            VALE_CALC=-0.00319336223515,
            VALE_REFE=-0.00319336223515,
            REFERENCE="AUTRE_ASTER",
            PRECISION=2.0000000000000002e-05,
            CRITERE="RELATIF",
            GROUP_MA="M1",
        ),
        #
        _F(
            INST=176.0,
            RESULTAT=U,
            NOM_CHAM="EPSI_ELNO",
            GROUP_NO="N13",
            NOM_CMP="EPYY",
            VALE_CALC=-0.015889279641238,
            VALE_REFE=-0.015883999999999999,
            REFERENCE="AUTRE_ASTER",
            PRECISION=4.0000000000000002e-4,
            CRITERE="RELATIF",
            GROUP_MA="M1",
        ),
        _F(
            INST=176.0,
            RESULTAT=U,
            NOM_CHAM="SIGM_ELNO",
            GROUP_NO="N13",
            NOM_CMP="SIZZ",
            VALE_CALC=1.3072035876208e08,
            VALE_REFE=1.30720000e8,
            REFERENCE="AUTRE_ASTER",
            PRECISION=1.0000000000000001e-05,
            CRITERE="RELATIF",
            GROUP_MA="M1",
        ),
        _F(
            INST=176.0,
            RESULTAT=U,
            NOM_CHAM="VARI_ELNO",
            GROUP_NO="N13",
            NOM_CMP="V3",
            VALE_CALC=9.3610054223484e-03,
            VALE_REFE=9.3609999999999995e-3,
            REFERENCE="AUTRE_ASTER",
            PRECISION=1.0000000000000001e-05,
            CRITERE="RELATIF",
            GROUP_MA="M1",
        ),
        _F(
            INST=176.0,
            RESULTAT=U,
            NOM_CHAM="EPVC_ELNO",
            GROUP_NO="N13",
            NOM_CMP="EPTHER_L",
            VALE_CALC=-0.01068,
            VALE_REFE=-0.01068,
            REFERENCE="AUTRE_ASTER",
            CRITERE="RELATIF",
            GROUP_MA="M1",
        ),
        _F(
            INST=176.0,
            RESULTAT=U,
            NOM_CHAM="EPME_ELNO",
            GROUP_NO="N13",
            NOM_CMP="EPYY",
            VALE_CALC=-0.00520927964118,
            VALE_REFE=-0.00520927964118,
            REFERENCE="AUTRE_ASTER",
            PRECISION=2.0000000000000002e-05,
            CRITERE="RELATIF",
            GROUP_MA="M1",
        ),
        _F(
            INST=176.0,
            RESULTAT=U,
            NOM_CHAM="EPSP_ELNO",
            GROUP_NO="N13",
            NOM_CMP="EPYY",
            VALE_CALC=-0.00501319910295,
            VALE_REFE=-0.00501319910295,
            REFERENCE="AUTRE_ASTER",
            PRECISION=2.0000000000000002e-05,
            CRITERE="RELATIF",
            GROUP_MA="M1",
        ),
        #
    )
)

FIN()
#
#
