# coding=utf-8
# --------------------------------------------------------------------
# Copyright (C) 1991 - 2025 - EDF R&D - www.code-aster.org
# This file is part of code_aster.
#
# code_aster is free software: you can redistribute it and/or modify
# it under the terms of the GNU General Public License as published by
# the Free Software Foundation, either version 3 of the License, or
# (at your option) any later version.
#
# code_aster is distributed in the hope that it will be useful,
# but WITHOUT ANY WARRANTY; without even the implied warranty of
# MERCHANTABILITY or FITNESS FOR A PARTICULAR PURPOSE.  See the
# GNU General Public License for more details.
#
# You should have received a copy of the GNU General Public License
# along with code_aster.  If not, see <http://www.gnu.org/licenses/>.
# --------------------------------------------------------------------

# person_in_charge: mickael.abbas at edf.fr

DEBUT(CODE="OUI", ERREUR=_F(ALARME="EXCEPTION"), DEBUG=_F(SDVERI="OUI"))

# ......................................................................
# CAS TEST THERMOPLASTICITE ELEMENTAIRE
# ......................................................................
# DEFINITION DES CARACTERISTIQUES DU MATERIAU

MAIL = LIRE_MAILLAGE(FORMAT="MED")

#
# DONNEES DE MODELISATION

FCT1 = DEFI_FONCTION(
    NOM_PARA="EPSI",
    VALE=(0.200e-2, 400.0, 0.400e-2, 500.0),
    PROL_DROITE="LINEAIRE",
    PROL_GAUCHE="LINEAIRE",
)

#

FCT2 = DEFI_FONCTION(
    NOM_PARA="EPSI",
    VALE=(0.100e-2, 200.0, 0.300e-2, 300.0),
    PROL_DROITE="LINEAIRE",
    PROL_GAUCHE="LINEAIRE",
)

#

CTRACB = DEFI_NAPPE(
    NOM_PARA="TEMP",
    PARA=(0.0, 50.0),
    FONCTION=(FCT1, FCT2),
    PROL_DROITE="LINEAIRE",
    PROL_GAUCHE="LINEAIRE",
)

#

MAT = DEFI_MATERIAU(
    ELAS=_F(E=200.0e3, NU=0.3, ALPHA=10.0e-6),
    TRACTION=_F(SIGM=CTRACB),
    THER=_F(LAMBDA=1.0e-3, RHO_CP=0.0e-3),
)

#

CM = AFFE_MATERIAU(MAILLAGE=MAIL, AFFE=_F(TOUT="OUI", MATER=MAT))

#

T0 = CREA_CHAMP(
    TYPE_CHAM="NOEU_TEMP_R",
    OPERATION="AFFE",
    MAILLAGE=MAIL,
    AFFE=_F(TOUT="OUI", NOM_CMP="TEMP", VALE=0.0),
)

L_INST = DEFI_LIST_REEL(
    DEBUT=0.0,
    INTERVALLE=(
        _F(JUSQU_A=66.666e0, NOMBRE=1),
        _F(JUSQU_A=80.000e0, NOMBRE=2),
        _F(JUSQU_A=90.000e0, NOMBRE=2),
    ),
)

#

TIMPVAR = DEFI_FONCTION(NOM_PARA="INST", NOM_RESU="TEMP", VALE=(0.0e0, 0.0e0, 100.0e0, 100.0e0))

#

MOTHER = AFFE_MODELE(MAILLAGE=MAIL, AFFE=_F(TOUT="OUI", PHENOMENE="THERMIQUE", MODELISATION="3D"))

#

MOMECA = AFFE_MODELE(
    MAILLAGE=MAIL, AFFE=_F(TOUT="OUI", PHENOMENE="MECANIQUE", MODELISATION="3D_INCO_UP")
)

#

CHTHER = AFFE_CHAR_THER_F(MODELE=MOTHER, TEMP_IMPO=_F(TOUT="OUI", TEMP=TIMPVAR))

#

TEMPE = THER_LINEAIRE(
    MODELE=MOTHER,
    CHAM_MATER=CM,
    EXCIT=_F(CHARGE=CHTHER),
    INCREMENT=_F(LIST_INST=L_INST),
    ETAT_INIT=_F(CHAM_NO=T0),
)

CHMECA = AFFE_CHAR_MECA(
    MODELE=MOMECA,
    DDL_IMPO=(
        _F(GROUP_MA="GRDX", DX=0.0),
        _F(GROUP_MA="GRDY", DY=0.0),
        _F(GROUP_MA="GRDZ", DZ=0.0),
    ),
)

CTM = AFFE_MATERIAU(
    MAILLAGE=MAIL,
    AFFE=_F(TOUT="OUI", MATER=MAT),
    AFFE_VARC=_F(TOUT="OUI", NOM_VARC="TEMP", EVOL=TEMPE, NOM_CHAM="TEMP", VALE_REF=0.0),
)

U = STAT_NON_LINE(
    MODELE=MOMECA,
    CHAM_MATER=CTM,
    EXCIT=_F(CHARGE=CHMECA),
    COMPORTEMENT=_F(RELATION="VMIS_ISOT_TRAC", DEFORMATION="GDEF_LOG"),
    INCREMENT=_F(LIST_INST=L_INST),
    NEWTON=_F(MATRICE="TANGENTE", REAC_ITER=1),
    CONVERGENCE=_F(RESI_GLOB_RELA=1.0e-5, ITER_GLOB_MAXI=10),
    SOLVEUR=_F(METHODE="MUMPS"),
)

#

U = CALC_CHAMP(
    reuse=U,
    RESULTAT=U,
    CONTRAINTE=("SIGM_ELNO"),
    VARI_INTERNE=("VARI_ELNO"),
    DEFORMATION=("EPSI_ELNO", "EPSL_ELNO"),
)


#

TEST_RESU(
    RESU=(
        _F(
            NUME_ORDRE=5,
            REFERENCE="ANALYTIQUE",
            RESULTAT=TEMPE,
            NOM_CHAM="TEMP",
            GROUP_NO="N1",
            NOM_CMP="TEMP",
            VALE_CALC=90.0,
            VALE_REFE=90.0,
        ),
        _F(
            NUME_ORDRE=1,
            REFERENCE="ANALYTIQUE",
            RESULTAT=U,
            NOM_CHAM="EPSL_ELNO",
            GROUP_NO="N1",
            NOM_CMP="EPXX",
            VALE_CALC=0.000866658345084,
            VALE_REFE=8.6666e-4,
            PRECISION=0.5e-3,
            GROUP_MA="M19",
        ),
        _F(
            NUME_ORDRE=1,
            REFERENCE="ANALYTIQUE",
            RESULTAT=U,
            NOM_CHAM="SIGM_ELNO",
            GROUP_NO="N1",
            NOM_CMP="SIYY",
            VALE_CALC=-133.10101283679,
            VALE_REFE=-133.333,
            PRECISION=2.0e-3,
            GROUP_MA="M19",
        ),
        _F(
            NUME_ORDRE=3,
            REFERENCE="ANALYTIQUE",
            RESULTAT=U,
            NOM_CHAM="EPSL_ELNO",
            GROUP_NO="N2",
            NOM_CMP="EPXX",
            VALE_CALC=0.00109999858689,
            VALE_REFE=1.1e-3,
            PRECISION=0.6e-3,
            GROUP_MA="M19",
        ),
        _F(
            NUME_ORDRE=3,
            REFERENCE="ANALYTIQUE",
            RESULTAT=U,
            NOM_CHAM="VARI_ELNO",
            GROUP_NO="N2",
            NOM_CMP="V1",
            VALE_CALC=2.9999927517613e-04,
            VALE_REFE=3.0e-4,
            PRECISION=5.0e-4,
            GROUP_MA="M19",
        ),
        _F(
            NUME_ORDRE=3,
            REFERENCE="ANALYTIQUE",
            RESULTAT=U,
            NOM_CHAM="SIGM_ELNO",
            GROUP_NO="N2",
            NOM_CMP="SIYY",
            VALE_CALC=-99.780520650964,
            VALE_REFE=-100.0,
            PRECISION=2.5e-3,
            GROUP_MA="M19",
        ),
        _F(
            NUME_ORDRE=5,
            REFERENCE="ANALYTIQUE",
            RESULTAT=U,
            NOM_CHAM="EPSL_ELNO",
            GROUP_NO="N3",
            NOM_CMP="EPXX",
            VALE_CALC=0.00127498477047,
            VALE_REFE=1.275e-3,
            PRECISION=1.0e-3,
            GROUP_MA="M19",
        ),
        _F(
            NUME_ORDRE=5,
            REFERENCE="ANALYTIQUE",
            RESULTAT=U,
            NOM_CHAM="VARI_ELNO",
            GROUP_NO="N3",
            NOM_CMP="V1",
            VALE_CALC=5.2499201355232e-04,
            VALE_REFE=5.25e-4,
            PRECISION=1.0e-4,
            GROUP_MA="M19",
        ),
        _F(
            NUME_ORDRE=5,
            REFERENCE="ANALYTIQUE",
            RESULTAT=U,
            NOM_CHAM="SIGM_ELNO",
            GROUP_NO="N3",
            NOM_CMP="SIYY",
            VALE_CALC=-74.812020066419,
            VALE_REFE=-75.0,
            PRECISION=3.0e-3,
            GROUP_MA="M19",
        ),
    )
)


FIN()

#
