# coding=utf-8
# --------------------------------------------------------------------
# Copyright (C) 1991 - 2025 - EDF R&D - www.code-aster.org
# This file is part of code_aster.
#
# code_aster is free software: you can redistribute it and/or modify
# it under the terms of the GNU General Public License as published by
# the Free Software Foundation, either version 3 of the License, or
# (at your option) any later version.
#
# code_aster is distributed in the hope that it will be useful,
# but WITHOUT ANY WARRANTY; without even the implied warranty of
# MERCHANTABILITY or FITNESS FOR A PARTICULAR PURPOSE.  See the
# GNU General Public License for more details.
#
# You should have received a copy of the GNU General Public License
# along with code_aster.  If not, see <http://www.gnu.org/licenses/>.
# --------------------------------------------------------------------

DEBUT(CODE="OUI", ERREUR=_F(ALARME="EXCEPTION"), DEBUG=_F(SDVERI="OUI"))

MA = LIRE_MAILLAGE(FORMAT="ASTER")

MO = AFFE_MODELE(MAILLAGE=MA, AFFE=_F(TOUT="OUI", PHENOMENE="MECANIQUE", MODELISATION="3D"))

COU_T20 = DEFI_FONCTION(
    NOM_PARA="EPSI",
    PROL_DROITE="LINEAIRE",
    VALE=(
        5.00000e-03,
        1.00000e03,
        2.05204e-02,
        2.10409e03,
        3.10951e-02,
        2.21901e03,
        4.14585e-02,
        2.29171e03,
        5.17295e-02,
        2.34590e03,
        6.19475e-02,
        2.38950e03,
        7.21308e-02,
        2.42616e03,
        8.22896e-02,
        2.45792e03,
        9.24300e-02,
        2.48599e03,
        1.02556e-01,
        2.51121e03,
# ... 182 like lines cut
    ),
)

SY = 1000.0
APUI = 1.0
NPUI = 7.0
E = 200000.0

COU_TRAC = DEFI_NAPPE(
    NOM_PARA="TEMP",
    PARA=(20.0, 120.0),
    FONCTION=(COU_T20, COU_T20),
    PROL_GAUCHE="CONSTANT",
    PROL_DROITE="CONSTANT",
)

ACIER_T = DEFI_MATERIAU(
    ELAS=_F(E=E, NU=0.3, ALPHA=1.0e-4),
    TRACTION=_F(SIGM=COU_TRAC),
    ECRO_PUIS=_F(A_PUIS=APUI, N_PUIS=NPUI, SY=SY),
)

L_INST = DEFI_LIST_REEL(
    DEBUT=0.0, INTERVALLE=(_F(JUSQU_A=1.00, NOMBRE=1), _F(JUSQU_A=2.00, NOMBRE=20))
)

F_CHAR = DEFI_FONCTION(
    NOM_PARA="INST", PROL_DROITE="CONSTANT", VALE=(0.0, 0.0, 1.0, 0.0, 2.0, 293.3)
)

F_TEMP = DEFI_FONCTION(
    NOM_PARA="INST",
    NOM_RESU="TEMP",
    PROL_DROITE="CONSTANT",
    VALE=(0.0, 20.0, 1.0, 120.0, 2.0, 120.0),
)

CHP_TEMP = CREA_CHAMP(
    OPERATION="AFFE",
    TYPE_CHAM="NOEU_TEMP_F",
    MAILLAGE=MA,
    AFFE=_F(TOUT="OUI", NOM_CMP="TEMP", VALE_F=F_TEMP),
)

TEMP = CREA_RESU(
    OPERATION="AFFE",
    TYPE_RESU="EVOL_THER",
    AFFE=_F(NOM_CHAM="TEMP", LIST_INST=L_INST, CHAM_GD=CHP_TEMP),
)

CHP_MATT = AFFE_MATERIAU(
    MAILLAGE=MA,
    AFFE=_F(TOUT="OUI", MATER=ACIER_T),
    AFFE_VARC=_F(TOUT="OUI", EVOL=TEMP, NOM_VARC="TEMP", NOM_CHAM="TEMP", VALE_REF=20.0),
)


CHR_LIAI = AFFE_CHAR_MECA(
    MODELE=MO,
    DDL_IMPO=(
        _F(GROUP_NO="NO2", DX=0.0, DY=0.0, DZ=0.0),
        _F(GROUP_NO="NO6", DX=0.0, DY=0.0),
        _F(GROUP_NO="NO1", DX=0.0, DZ=0.0),
        _F(GROUP_NO=("NO9", "NO13", "NO14", "NO5", "NO17"), DX=0.0),
    ),
)

CHR_TRAC = AFFE_CHAR_MECA(MODELE=MO, FACE_IMPO=_F(GROUP_MA="MA2", DX=1.0))

VT = STAT_NON_LINE(
    MODELE=MO,
    CHAM_MATER=CHP_MATT,
    EXCIT=(_F(CHARGE=CHR_LIAI),),
    COMPORTEMENT=_F(RELATION="VMIS_ISOT_TRAC", DEFORMATION="GDEF_LOG"),
    INCREMENT=_F(LIST_INST=L_INST, NUME_INST_FIN=1),
    NEWTON=_F(MATRICE="TANGENTE", REAC_ITER=1),
    CONVERGENCE=_F(RESI_GLOB_MAXI=1.0e-1, ITER_GLOB_MAXI=50),
    RECH_LINEAIRE=_F(ITER_LINE_MAXI=3),
)

VT = STAT_NON_LINE(
    reuse=VT,
    ETAT_INIT=_F(EVOL_NOLI=VT, NUME_ORDRE=1),
    MODELE=MO,
    CHAM_MATER=CHP_MATT,
    EXCIT=(_F(CHARGE=CHR_LIAI), _F(CHARGE=CHR_TRAC, FONC_MULT=F_CHAR, TYPE_CHARGE="DIDI")),
    COMPORTEMENT=_F(RELATION="VMIS_ISOT_TRAC", DEFORMATION="GDEF_LOG"),
    INCREMENT=_F(LIST_INST=L_INST),
    NEWTON=_F(MATRICE="TANGENTE", REAC_ITER=1),
    CONVERGENCE=_F(RESI_GLOB_RELA=1.0e-6, ITER_GLOB_MAXI=50),
    RECH_LINEAIRE=_F(ITER_LINE_MAXI=3),
)

TEST_RESU(
    RESU=(
        _F(
            INST=2.0,
            REFERENCE="NON_DEFINI",
            RESULTAT=VT,
            NOM_CHAM="DEPL",
            GROUP_NO="NO8",
            NOM_CMP="DX",
            VALE_CALC=303.35016708416816,
            VALE_REFE=303.35,
            PRECISION=1.0e-2,
        ),
        _F(
            INST=2.0,
            REFERENCE="NON_DEFINI",
            RESULTAT=VT,
            NOM_CHAM="DEPL",
            GROUP_NO="NO8",
            NOM_CMP="DY",
            VALE_CALC=-108.39247278501608,
            VALE_REFE=-108.39,
            PRECISION=1.0e-2,
        ),
        _F(
            INST=2.0,
            REFERENCE="NON_DEFINI",
            RESULTAT=VT,
            NOM_CHAM="DEPL",
            GROUP_NO="NO8",
            NOM_CMP="DZ",
            VALE_CALC=-108.39247272318366,
            VALE_REFE=-108.39,
            PRECISION=1.0e-2,
        ),
        _F(
            INST=2.0,
            REFERENCE="NON_DEFINI",
            POINT=1,
            RESULTAT=VT,
            NOM_CHAM="SIEF_ELGA",
            NOM_CMP="SIXX",
            VALE_CALC=2644.267136994804,
            VALE_REFE=2644.27,
            PRECISION=1.0e-2,
            GROUP_MA="MA1",
        ),
        _F(
            INST=2.0,
            REFERENCE="NON_DEFINI",
            POINT=1,
            RESULTAT=VT,
            NOM_CHAM="VARI_ELGA",
            NOM_CMP="V1",
            VALE_CALC=0.2412391542947752,
            VALE_REFE=0.24124,
            PRECISION=0.015,
            GROUP_MA="MA1",
        ),
    )
)

#
#  ISOT_PUIS


VP = STAT_NON_LINE(
    MODELE=MO,
    CHAM_MATER=CHP_MATT,
    EXCIT=(_F(CHARGE=CHR_LIAI),),
    COMPORTEMENT=_F(RELATION="VMIS_ISOT_PUIS", DEFORMATION="GDEF_LOG"),
    INCREMENT=_F(LIST_INST=L_INST, NUME_INST_FIN=1),
    NEWTON=_F(MATRICE="TANGENTE", REAC_ITER=1),
    CONVERGENCE=_F(RESI_GLOB_MAXI=1.0e-1, ITER_GLOB_MAXI=50),
    RECH_LINEAIRE=_F(ITER_LINE_MAXI=3),
)

VP = STAT_NON_LINE(
    reuse=VP,
    ETAT_INIT=_F(EVOL_NOLI=VP, NUME_ORDRE=1),
    MODELE=MO,
    CHAM_MATER=CHP_MATT,
    EXCIT=(_F(CHARGE=CHR_LIAI), _F(CHARGE=CHR_TRAC, FONC_MULT=F_CHAR, TYPE_CHARGE="DIDI")),
    COMPORTEMENT=_F(RELATION="VMIS_ISOT_PUIS", DEFORMATION="GDEF_LOG"),
    INCREMENT=_F(LIST_INST=L_INST),
    NEWTON=_F(MATRICE="TANGENTE", REAC_ITER=1),
    CONVERGENCE=_F(RESI_GLOB_RELA=1.0e-6, ITER_GLOB_MAXI=50),
    RECH_LINEAIRE=_F(ITER_LINE_MAXI=3),
)

TEST_RESU(
    RESU=(
        _F(
            INST=2.0,
            REFERENCE="NON_DEFINI",
            RESULTAT=VP,
            NOM_CHAM="DEPL",
            GROUP_NO="NO8",
            NOM_CMP="DX",
            VALE_CALC=303.35016708416816,
            VALE_REFE=303.35,
            PRECISION=1.0e-2,
        ),
        _F(
            INST=2.0,
            REFERENCE="NON_DEFINI",
            RESULTAT=VP,
            NOM_CHAM="DEPL",
            GROUP_NO="NO8",
            NOM_CMP="DY",
            VALE_CALC=-108.39245404367465,
            VALE_REFE=-108.39,
            PRECISION=1.0e-2,
        ),
        _F(
            INST=2.0,
            REFERENCE="NON_DEFINI",
            RESULTAT=VP,
            NOM_CHAM="DEPL",
            GROUP_NO="NO8",
            NOM_CMP="DZ",
            VALE_CALC=-108.39245415691822,
            VALE_REFE=-108.39,
            PRECISION=1.0e-2,
        ),
        _F(
            INST=2.0,
            REFERENCE="NON_DEFINI",
            POINT=1,
            RESULTAT=VP,
            NOM_CHAM="SIEF_ELGA",
            NOM_CMP="SIXX",
            VALE_CALC=2644.2864367350376,
            VALE_REFE=2644.27,
            PRECISION=1.0e-2,
            GROUP_MA="MA1",
        ),
        _F(
            INST=2.0,
            REFERENCE="NON_DEFINI",
            POINT=1,
            RESULTAT=VP,
            NOM_CHAM="VARI_ELGA",
            NOM_CMP="V1",
            VALE_CALC=0.24123905627318917,
            VALE_REFE=0.24124,
            PRECISION=0.015,
            GROUP_MA="MA1",
        ),
    )
)

FIN()
#
