# coding=utf-8
# --------------------------------------------------------------------
# Copyright (C) 1991 - 2025 - EDF R&D - www.code-aster.org
# This file is part of code_aster.
#
# code_aster is free software: you can redistribute it and/or modify
# it under the terms of the GNU General Public License as published by
# the Free Software Foundation, either version 3 of the License, or
# (at your option) any later version.
#
# code_aster is distributed in the hope that it will be useful,
# but WITHOUT ANY WARRANTY; without even the implied warranty of
# MERCHANTABILITY or FITNESS FOR A PARTICULAR PURPOSE.  See the
# GNU General Public License for more details.
#
# You should have received a copy of the GNU General Public License
# along with code_aster.  If not, see <http://www.gnu.org/licenses/>.
# --------------------------------------------------------------------

# ( SANS PLASTICITE DE TRANSFORMATION)
# CAS_TEST__: HSNV101A
# HSNV101A                COMMANDES            11/12/92
# BARREAU CYLINDRIQUE COUPLE EN TRCTION SIMPLE
# MODELISATION AXIS_META  (ELEMENTS AXISYMETRIQUES METALLURGIQUES)
#             13 NOEUDS  2 MAILLES QUAD8
# ======================================================================

DEBUT(CODE="OUI", BASE=_F(FICHIER="GLOBALE", LONG_REPE=13000), DEBUG=_F(SDVERI="OUI"))

MAIL = LIRE_MAILLAGE(FORMAT="ASTER")

TRCMNDA = DEFI_TRC(
    HIST_EXP=(
        _F(
            VALE=(
                -1.106e03,
                1.100e01,
                8.563e00,
                -2.760e-02,
                1.220e-04,
                -2.955e-07,
                3.402e-10,
                -1.517e-13,
                0.000e00,
                0.000e00,
                0.000e00,
                8.360e02,
                0.000e00,
                0.000e00,
                0.000e00,
                6.001e02,
                0.000e00,
                0.000e00,
                1.000e00,
                3.450e02,
            )
        ),
        _F(
            VALE=(
                -2.206e03,
                1.100e01,
                8.563e00,
                -2.760e-02,
                1.220e-04,
                -2.955e-07,
                3.402e-10,
                -1.517e-13,
                0.000e00,
                0.000e00,
                0.000e00,
                8.360e02,
                0.000e00,
                0.000e00,
                0.000e00,
                6.001e02,
                0.000e00,
                0.000e00,
                1.000e00,
                3.450e02,
            )
        ),
    ),
    TEMP_MS=_F(SEUIL=4.500e-01, AKM=-3.125e01, BKM=1.406e01, TPLM=-3.497e03),
)

ACIER = DEFI_MATERIAU(
    THER=_F(RHO_CP=2000000.0, LAMBDA=9999.9),
    META_ACIER=_F(
        TRC=TRCMNDA,
        AR3=830.0,
        ALPHA=-0.0300,
        MS0=200.0,
        AC1=724.0,
        AC3=846.0,
        TAUX_1=0.34,
        TAUX_3=0.34,
    ),
)

CHMAT = AFFE_MATERIAU(MAILLAGE=MAIL, AFFE=_F(TOUT="OUI", MATER=ACIER))

MOTH = AFFE_MODELE(MAILLAGE=MAIL, AFFE=_F(TOUT="OUI", MODELISATION="AXIS", PHENOMENE="THERMIQUE"))

TIMPO = DEFI_FONCTION(
    NOM_PARA="INST",
    NOM_RESU="TEMP",
    VALE=(0.0, 900.0, 180.0, 0.0),
    PROL_GAUCHE="LINEAIRE",
    PROL_DROITE="LINEAIRE",
    INTERPOL="LIN",
)

CHTH = AFFE_CHAR_THER_F(MODELE=MOTH, TEMP_IMPO=_F(TOUT="OUI", TEMP=TIMPO))

LR8 = DEFI_LIST_REEL(DEBUT=0.0, INTERVALLE=_F(JUSQU_A=176.0, NOMBRE=88))

PHASINIT = CREA_CHAMP(
    OPERATION="AFFE",
    TYPE_CHAM="CART_VAR2_R",
    MAILLAGE=MAIL,
    AFFE=_F(
        GROUP_MA=("M1", "M2"),
        NOM_CMP=("V1", "V2", "V3", "V4", "V5", "V6", "V7"),
        VALE=(0.0, 0.0, 0.0, 0.0, 1.0, 0.0, 10),
    ),
)

TEMPE = THER_LINEAIRE(
    MODELE=MOTH,
    CHAM_MATER=CHMAT,
    PARM_THETA=0.57,
    EXCIT=_F(CHARGE=CHTH),
    INCREMENT=_F(LIST_INST=LR8),
)

TEMPE = CALC_META(
    reuse=TEMPE,
    RESULTAT=TEMPE,
    ETAT_INIT=_F(META_INIT_ELNO=PHASINIT),
    COMPORTEMENT=_F(RELATION="ACIER", GROUP_MA=("M1", "M2")),
    OPTION="META_ELNO",
)

# IMPR_RESU(FORMAT="MED", RESU=_F(RESULTAT=TEMPE))

FBM1 = DEFI_FONCTION(
    NOM_PARA="TEMP",
    PROL_DROITE="LINEAIRE",
    PROL_GAUCHE="LINEAIRE",
    VALE=(
        0.0,
        4353.14e6,
        20.0,
        4257.40e6,
        40.0,
        4161.57e6,
        60.0,
        4065.64e6,
        80.0,
        3969.62e6,
        100.0,
        3873.50e6,
        120.0,
        3777.29e6,
        140.0,
        3680.98e6,
        160.0,
        3584.58e6,
        180.0,
        3488.09e6,
# ... 72 like lines cut
    ),
)

FBM2 = DEFI_FONCTION(
    NOM_PARA="TEMP",
    PROL_DROITE="LINEAIRE",
    PROL_GAUCHE="LINEAIRE",
    VALE=(0.0, 80.0e6, 900.0, 530.0e6),
)

AUS1 = DEFI_FONCTION(
    NOM_PARA="TEMP",
    PROL_DROITE="LINEAIRE",
    PROL_GAUCHE="LINEAIRE",
    VALE=(
        0.0,
        5589.31e6,
        20.0,
        5494.77e6,
        40.0,
        5400.14e6,
        60.0,
        5305.43e6,
        80.0,
        5210.62e6,
        100.0,
        5115.71e6,
        120.0,
        5020.72e6,
        140.0,
        4925.63e6,
        160.0,
        4830.45e6,
        180.0,
        4735.17e6,
# ... 72 like lines cut
    ),
)

AUS2 = DEFI_FONCTION(
    NOM_PARA="TEMP",
    PROL_DROITE="LINEAIRE",
    PROL_GAUCHE="LINEAIRE",
    VALE=(0.0, -50.0e6, 900.0, 400.0e6),
)

ALP1 = DEFI_FONCTION(
    NOM_PARA="TEMP",
    PROL_DROITE="CONSTANT",
    PROL_GAUCHE="CONSTANT",
    VALE=(0.0, 15.0e-6, 900.0, 15.0e-6),
)

ALP2 = DEFI_FONCTION(
    NOM_PARA="TEMP",
    PROL_DROITE="CONSTANT",
    PROL_GAUCHE="CONSTANT",
    VALE=(0.0, 23.5e-6, 900.0, 23.5e-6),
)

FMEL = DEFI_FONCTION(
    NOM_PARA="META", PROL_DROITE="CONSTANT", PROL_GAUCHE="CONSTANT", VALE=(0.0, 0.0, 1.0, 1.0)
)

YOUNG = DEFI_CONSTANTE(VALE=200000.0e6)

NU = DEFI_CONSTANTE(VALE=0.3)

ACIER2 = DEFI_MATERIAU(
    ELAS_META_FO=_F(
        E=YOUNG,
        NU=NU,
        F_ALPHA=ALP1,
        C_ALPHA=ALP2,
        PHASE_REFE="CHAUD",
        EPSF_EPSC_TREF=2.52e-3,
        F1_SY=FBM2,
        F2_SY=FBM2,
        F3_SY=FBM2,
        F4_SY=FBM2,
        C_SY=AUS2,
        SY_MELANGE=FMEL,
        TEMP_DEF_ALPHA=900.0,
    ),
    META_ECRO_LINE=_F(
        F1_D_SIGM_EPSI=FBM1,
        F2_D_SIGM_EPSI=FBM1,
        F3_D_SIGM_EPSI=FBM1,
        F4_D_SIGM_EPSI=FBM1,
        C_D_SIGM_EPSI=AUS1,
    ),
)


ACIER = DEFI_MATERIAU(ELAS=_F(E=200000.0e6, NU=0.3, ALPHA=23.5e-6))

CM2 = AFFE_MATERIAU(
    MAILLAGE=MAIL,
    AFFE=(_F(TOUT="OUI", MATER=ACIER), _F(GROUP_MA=("M1", "M2"), MATER=ACIER2)),
    AFFE_VARC=(
        _F(GROUP_MA=("M1", "M2"), EVOL=TEMPE, NOM_VARC="M_ACIER", NOM_CHAM="META_ELNO"),
        _F(TOUT="OUI", EVOL=TEMPE, NOM_VARC="TEMP", NOM_CHAM="TEMP", VALE_REF=900),
    ),
)

MO = AFFE_MODELE(MAILLAGE=MAIL, AFFE=_F(TOUT="OUI", PHENOMENE="MECANIQUE", MODELISATION="AXIS"))

CH_FO = AFFE_CHAR_MECA(
    MODELE=MO,
    FORCE_CONTOUR=_F(GROUP_MA="M3", FY=1.0),
    DDL_IMPO=(_F(GROUP_NO="N4", DY=0.0), _F(GROUP_NO="N2", DY=0.0), _F(GROUP_NO="N5", DY=0.0)),
)

RAMPE = DEFI_FONCTION(
    NOM_PARA="INST", PROL_GAUCHE="LINEAIRE", PROL_DROITE="CONSTANT", VALE=(0.0, 0.0, 60.0, 360.0e6)
)

L_INST = DEFI_LIST_REEL(
    DEBUT=0.0,
    INTERVALLE=(
        _F(JUSQU_A=46.0, NOMBRE=4),
        _F(JUSQU_A=48.0, NOMBRE=2),
        _F(JUSQU_A=60.0, NOMBRE=6),
        _F(JUSQU_A=112.0, NOMBRE=26),
        _F(JUSQU_A=176.0, NOMBRE=32),
    ),
)

U = STAT_NON_LINE(
    MODELE=MO,
    CHAM_MATER=CM2,
    EXCIT=_F(CHARGE=CH_FO, FONC_MULT=RAMPE),
    COMPORTEMENT=_F(RELATION="META_P_IL", RELATION_KIT=("ACIER",), GROUP_MA=("M1", "M2")),
    INCREMENT=_F(LIST_INST=L_INST),
    NEWTON=_F(MATRICE="TANGENTE", REAC_ITER=1),
    CONVERGENCE=_F(RESI_GLOB_RELA=1.0e-6, ITER_GLOB_MAXI=40),
)

U = CALC_CHAMP(reuse=U, CONTRAINTE=("SIGM_ELNO"), VARI_INTERNE=("VARI_ELNO"), RESULTAT=U)


#

TEST_RESU(RESU=(_F(NUME_ORDRE=70, PARA="INST", RESULTAT=U, VALE_CALC=176.0),))

U = CALC_CHAMP(reuse=U, RESULTAT=U, DEFORMATION=("EPSI_ELNO"))


CHVAR47 = CREA_CHAMP(
    OPERATION="EXTR", TYPE_CHAM="ELNO_VARI_R", RESULTAT=U, NOM_CHAM="VARI_ELNO", INST=47.0
)

CHSIG47 = CREA_CHAMP(
    OPERATION="EXTR", TYPE_CHAM="ELNO_SIEF_R", RESULTAT=U, NOM_CHAM="SIGM_ELNO", INST=47.0
)

CHEPS47 = CREA_CHAMP(
    OPERATION="EXTR", TYPE_CHAM="ELNO_EPSI_R", RESULTAT=U, NOM_CHAM="EPSI_ELNO", INST=47.0
)

CHVAR48 = CREA_CHAMP(
    OPERATION="EXTR", TYPE_CHAM="ELNO_VARI_R", RESULTAT=U, NOM_CHAM="VARI_ELNO", INST=48.0
)

CHSIG48 = CREA_CHAMP(
    OPERATION="EXTR", TYPE_CHAM="ELNO_SIEF_R", RESULTAT=U, NOM_CHAM="SIGM_ELNO", INST=48.0
)

CHEPS48 = CREA_CHAMP(
    OPERATION="EXTR", TYPE_CHAM="ELNO_EPSI_R", RESULTAT=U, NOM_CHAM="EPSI_ELNO", INST=48.0
)

CHVAR60 = CREA_CHAMP(
    OPERATION="EXTR", TYPE_CHAM="ELNO_VARI_R", RESULTAT=U, NOM_CHAM="VARI_ELNO", INST=60.0
)

CHVAR64 = CREA_CHAMP(
    OPERATION="EXTR", TYPE_CHAM="ELNO_VARI_R", RESULTAT=U, NOM_CHAM="VARI_ELNO", INST=64.0
)

CHSIG64 = CREA_CHAMP(
    OPERATION="EXTR", TYPE_CHAM="ELNO_SIEF_R", RESULTAT=U, NOM_CHAM="SIGM_ELNO", INST=64.0
)

CHEPS64 = CREA_CHAMP(
    OPERATION="EXTR", TYPE_CHAM="ELNO_EPSI_R", RESULTAT=U, NOM_CHAM="EPSI_ELNO", INST=64.0
)

CHVA114 = CREA_CHAMP(
    OPERATION="EXTR", TYPE_CHAM="ELNO_VARI_R", RESULTAT=U, NOM_CHAM="VARI_ELNO", INST=114.0
)

CHSI114 = CREA_CHAMP(
    OPERATION="EXTR", TYPE_CHAM="ELNO_SIEF_R", RESULTAT=U, NOM_CHAM="SIGM_ELNO", INST=114.0
)

CHEP114 = CREA_CHAMP(
    OPERATION="EXTR", TYPE_CHAM="ELNO_EPSI_R", RESULTAT=U, NOM_CHAM="EPSI_ELNO", INST=114.0
)

CHVA176 = CREA_CHAMP(
    OPERATION="EXTR", TYPE_CHAM="ELNO_VARI_R", RESULTAT=U, NOM_CHAM="VARI_ELNO", INST=176.0
)

# ------------------------------------------------------------------

TEST_RESU(
    CHAM_ELEM=(
        _F(
            GROUP_NO="N13",
            CRITERE="ABSOLU",
            NOM_CMP="V5",
            GROUP_MA="M1",
            CHAM_GD=CHVAR47,
            VALE_CALC=0.0e00,
            VALE_REFE=0.0,
            REFERENCE="NON_DEFINI",
        ),
        _F(
            GROUP_NO="N13",
            CRITERE="ABSOLU",
            NOM_CMP="V8",
            GROUP_MA="M1",
            CHAM_GD=CHVAR47,
            VALE_CALC=0.0e00,
            VALE_REFE=0.0,
            REFERENCE="NON_DEFINI",
        ),
        _F(
            GROUP_NO="N13",
            CRITERE="RELATIF",
            NOM_CMP="SIYY",
            GROUP_MA="M1",
            CHAM_GD=CHSIG47,
            VALE_CALC=2.8199986897636e08,
            VALE_REFE=2.82000000e8,
            REFERENCE="NON_DEFINI",
            PRECISION=1.0e-4,
        ),
        _F(
            GROUP_NO="N13",
            CRITERE="RELATIF",
            NOM_CMP="EPYY",
            GROUP_MA="M1",
            CHAM_GD=CHEPS47,
            VALE_CALC=-4.1125003852496e-03,
            VALE_REFE=-4.1124999999999998e-3,
            REFERENCE="NON_DEFINI",
            PRECISION=1.0e-4,
        ),
        _F(
            GROUP_NO="N13",
            CRITERE="RELATIF",
            NOM_CMP="V5",
            GROUP_MA="M1",
            CHAM_GD=CHVAR48,
            VALE_CALC=3.2653549304126e-03,
            VALE_REFE=3.2650000000000001e-3,
            REFERENCE="NON_DEFINI",
            PRECISION=1.4999999999999999e-4,
        ),
        _F(
            GROUP_NO="N13",
            CRITERE="RELATIF",
            NOM_CMP="V8",
            GROUP_MA="M1",
            CHAM_GD=CHVAR48,
            VALE_CALC=1.0,
            VALE_REFE=1.0,
            REFERENCE="NON_DEFINI",
            PRECISION=1.0e-3,
        ),
        _F(
            GROUP_NO="N13",
            CRITERE="RELATIF",
            NOM_CMP="SIYY",
            GROUP_MA="M1",
            CHAM_GD=CHSIG48,
            VALE_CALC=2.8799993609587e08,
            VALE_REFE=2.88000000e8,
            REFERENCE="NON_DEFINI",
            PRECISION=1.0e-4,
        ),
        _F(
            GROUP_NO="N13",
            CRITERE="RELATIF",
            NOM_CMP="EPYY",
            GROUP_MA="M1",
            CHAM_GD=CHEPS48,
            VALE_CALC=-9.3464484572225e-04,
            VALE_REFE=-9.3468999999999996e-4,
            REFERENCE="NON_DEFINI",
            PRECISION=6.9999999999999994e-05,
        ),
        _F(
            GROUP_NO="N13",
            CRITERE="RELATIF",
            NOM_CMP="V5",
            GROUP_MA="M1",
            CHAM_GD=CHVAR60,
            VALE_CALC=0.040000033462824,
            VALE_REFE=0.040000000000000001,
            REFERENCE="NON_DEFINI",
            PRECISION=1.0e-4,
        ),
        _F(
            GROUP_NO="N13",
            CRITERE="RELATIF",
            NOM_CMP="V5",
            GROUP_MA="M1",
            CHAM_GD=CHVAR64,
            VALE_CALC=0.040000033462824,
            VALE_REFE=0.040000000000000001,
            REFERENCE="NON_DEFINI",
            PRECISION=2.2000000000000001e-4,
        ),
        _F(
            GROUP_NO="N13",
            CRITERE="ABSOLU",
            NOM_CMP="V8",
            GROUP_MA="M1",
            CHAM_GD=CHVAR64,
            VALE_CALC=0.0e00,
            VALE_REFE=0.0,
            REFERENCE="NON_DEFINI",
        ),
        _F(
            GROUP_NO="N13",
            CRITERE="RELATIF",
            NOM_CMP="SIYY",
            GROUP_MA="M1",
            CHAM_GD=CHSIG64,
            VALE_CALC=3.5999984904968e08,
            VALE_REFE=3.60000000e8,
            REFERENCE="NON_DEFINI",
            PRECISION=1.0e-4,
        ),
        _F(
            GROUP_NO="N13",
            CRITERE="RELATIF",
            NOM_CMP="EPYY",
            GROUP_MA="M1",
            CHAM_GD=CHEPS64,
            VALE_CALC=0.034690852679456,
            VALE_REFE=0.034682999999999999,
            REFERENCE="NON_DEFINI",
            PRECISION=2.5000000000000001e-4,
        ),
        _F(
            GROUP_NO="N13",
            CRITERE="RELATIF",
            NOM_CMP="V3",
            GROUP_MA="M1",
            CHAM_GD=CHVA114,
            VALE_CALC=0.041071624044260,
            VALE_REFE=0.041070000000000002,
            REFERENCE="NON_DEFINI",
            PRECISION=1.0e-4,
        ),
        _F(
            GROUP_NO="N13",
            CRITERE="RELATIF",
            NOM_CMP="V8",
            GROUP_MA="M1",
            CHAM_GD=CHVA114,
            VALE_CALC=1.0,
            VALE_REFE=1.0,
            REFERENCE="NON_DEFINI",
            PRECISION=1.0e-3,
        ),
        _F(
            GROUP_NO="N13",
            CRITERE="RELATIF",
            NOM_CMP="SIYY",
            GROUP_MA="M1",
            CHAM_GD=CHSI114,
            VALE_CALC=3.5999984462008e08,
            VALE_REFE=3.60000000e8,
            REFERENCE="NON_DEFINI",
            PRECISION=2.0e-4,
        ),
        _F(
            GROUP_NO="N13",
            CRITERE="RELATIF",
            NOM_CMP="EPYY",
            GROUP_MA="M1",
            CHAM_GD=CHEP114,
            VALE_CALC=0.036841623953657,
            VALE_REFE=0.036840999999999999,
            REFERENCE="NON_DEFINI",
            PRECISION=2.6e-4,
        ),
        _F(
            GROUP_NO="N13",
            CRITERE="RELATIF",
            NOM_CMP="V3",
            PRECISION=2.0e-3,
            GROUP_MA="M1",
            CHAM_GD=CHVA176,
            VALE_CALC=0.062068878377520,
            VALE_REFE=0.06206,
            REFERENCE="NON_DEFINI",
        ),
    )
)

# TESTS AJOUTES POUR VERIFIER LE PASSAGE PG-NOEUDS


TEST_RESU(
    CHAM_ELEM=(
        _F(
            GROUP_NO="N13",
            NOM_CMP="SIYY",
            GROUP_MA="M1",
            CHAM_GD=CHSI114,
            VALE_CALC=3.5999984462008e08,
            VALE_REFE=3.60000000e8,
            REFERENCE="NON_DEFINI",
            PRECISION=1.0e-3,
        ),
        _F(
            GROUP_NO="N11",
            NOM_CMP="SIYY",
            GROUP_MA="M1",
            CHAM_GD=CHSI114,
            VALE_CALC=3.6000005751548e08,
            VALE_REFE=3.60000000e8,
            REFERENCE="NON_DEFINI",
            PRECISION=1.0e-3,
        ),
        _F(
            GROUP_NO="N12",
            NOM_CMP="SIYY",
            GROUP_MA="M1",
            CHAM_GD=CHSI114,
            VALE_CALC=3.6000027041087e08,
            VALE_REFE=3.60000000e8,
            REFERENCE="NON_DEFINI",
            PRECISION=1.0e-3,
        ),
        _F(
            GROUP_NO="N10",
            NOM_CMP="SIYY",
            GROUP_MA="M1",
            CHAM_GD=CHSI114,
            VALE_CALC=3.6000013587525e08,
            VALE_REFE=3.60000000e8,
            REFERENCE="NON_DEFINI",
            PRECISION=1.0e-3,
        ),
        _F(
            GROUP_NO="N8",
            NOM_CMP="SIYY",
            GROUP_MA="M1",
            CHAM_GD=CHSI114,
            VALE_CALC=3.6000000133963e08,
            VALE_REFE=3.60000000e8,
            REFERENCE="NON_DEFINI",
            PRECISION=1.0e-3,
        ),
        _F(
            GROUP_NO="N6",
            NOM_CMP="SIYY",
            GROUP_MA="M1",
            CHAM_GD=CHSI114,
            VALE_CALC=3.6000021893308e08,
            VALE_REFE=3.60000000e8,
            REFERENCE="NON_DEFINI",
            PRECISION=1.0e-3,
        ),
        _F(
            GROUP_NO="N7",
            NOM_CMP="SIYY",
            GROUP_MA="M1",
            CHAM_GD=CHSI114,
            VALE_CALC=3.6000043652654e08,
            VALE_REFE=3.60000000e8,
            REFERENCE="NON_DEFINI",
            PRECISION=1.0e-3,
        ),
        _F(
            GROUP_NO="N9",
            NOM_CMP="SIYY",
            GROUP_MA="M1",
            CHAM_GD=CHSI114,
            VALE_CALC=3.6000014057331e08,
            VALE_REFE=3.60000000e8,
            REFERENCE="NON_DEFINI",
            PRECISION=1.0e-3,
        ),
    )
)

FIN()
#
