# coding=utf-8
# --------------------------------------------------------------------
# Copyright (C) 1991 - 2025 - EDF R&D - www.code-aster.org
# This file is part of code_aster.
#
# code_aster is free software: you can redistribute it and/or modify
# it under the terms of the GNU General Public License as published by
# the Free Software Foundation, either version 3 of the License, or
# (at your option) any later version.
#
# code_aster is distributed in the hope that it will be useful,
# but WITHOUT ANY WARRANTY; without even the implied warranty of
# MERCHANTABILITY or FITNESS FOR A PARTICULAR PURPOSE.  See the
# GNU General Public License for more details.
#
# You should have received a copy of the GNU General Public License
# along with code_aster.  If not, see <http://www.gnu.org/licenses/>.
# --------------------------------------------------------------------

DEBUT(CODE="OUI", ERREUR=_F(ALARME="EXCEPTION"), DEBUG=_F(SDVERI="OUI"))

# ......................................................................
# PLAQUE CARREE EN TRACTION CISAILLEMENT CALCUL 3D
# ELASTO-VISCOPLASTICITE  ISOTROPE VON MISES
# AVEC METALLURGIE
# ......................................................................

MA = LIRE_MAILLAGE(FORMAT="ASTER")

TRCMNDA = DEFI_TRC(
    HIST_EXP=(
        _F(
            VALE=(
                -1.106e03,
                1.100e01,
                8.563e00,
                -2.760e-02,
                1.220e-04,
                -2.955e-07,
                3.402e-10,
                -1.517e-13,
                0.000e00,
                0.000e00,
                0.000e00,
                8.360e02,
                0.000e00,
                0.000e00,
                0.000e00,
                6.001e02,
                0.000e00,
                0.000e00,
                1.000e00,
                3.450e02,
            )
        ),
        _F(
            VALE=(
                -2.206e03,
                1.100e01,
                8.563e00,
                -2.760e-02,
                1.220e-04,
                -2.955e-07,
                3.402e-10,
                -1.517e-13,
                0.000e00,
                0.000e00,
                0.000e00,
                8.360e02,
                0.000e00,
                0.000e00,
                0.000e00,
                6.001e02,
                0.000e00,
                0.000e00,
                1.000e00,
                3.450e02,
            )
        ),
    ),
    TEMP_MS=_F(SEUIL=4.500e-01, AKM=-3.125e01, BKM=1.406e01, TPLM=-3.497e03),
)

ACIER = DEFI_MATERIAU(
    THER=_F(RHO_CP=2000000.0, LAMBDA=9999.9),
    META_ACIER=_F(
        TRC=TRCMNDA,
        AR3=830.0,
        ALPHA=-0.0300,
        MS0=200.0,
        AC1=724.0,
        AC3=846.0,
        TAUX_1=0.34,
        TAUX_3=0.34,
    ),
)

CHMAT = AFFE_MATERIAU(MAILLAGE=MA, AFFE=_F(TOUT="OUI", MATER=ACIER))

MOTH = AFFE_MODELE(MAILLAGE=MA, AFFE=_F(TOUT="OUI", MODELISATION="3D", PHENOMENE="THERMIQUE"))

TIMPO = DEFI_CONSTANTE(VALE=700.0)

CHTH = AFFE_CHAR_THER_F(MODELE=MOTH, TEMP_IMPO=_F(TOUT="OUI", TEMP=TIMPO))

LR8 = DEFI_LIST_REEL(
    DEBUT=0.0, INTERVALLE=(_F(JUSQU_A=10.0, NOMBRE=20), _F(JUSQU_A=60.0, NOMBRE=25))
)

DEFLISTT = DEFI_LIST_INST(DEFI_LIST=_F(LIST_INST=LR8))

PHASINIT = CREA_CHAMP(
    OPERATION="AFFE",
    TYPE_CHAM="CART_VAR2_R",
    MAILLAGE=MA,
    AFFE=_F(
        TOUT="OUI",
        NOM_CMP=("V1", "V2", "V3", "V4", "V5", "V6", "V7"),
        VALE=(0.0, 0.0, 0.0, 0.0, 1.0, 0.0, 20.0),
    ),
)

TEMPE = THER_LINEAIRE(
    MODELE=MOTH,
    CHAM_MATER=CHMAT,
    PARM_THETA=0.57,
    EXCIT=_F(CHARGE=CHTH),
    INCREMENT=_F(LIST_INST=DEFLISTT),
    ETAT_INIT=_F(VALE=700.0),
)

TEMPE = CALC_META(
    reuse=TEMPE,
    RESULTAT=TEMPE,
    ETAT_INIT=_F(META_INIT_ELNO=PHASINIT),
    COMPORTEMENT=_F(RELATION="ACIER", TOUT="OUI"),
    OPTION="META_ELNO",
)

MO = AFFE_MODELE(MAILLAGE=MA, AFFE=_F(TOUT="OUI", PHENOMENE="MECANIQUE", MODELISATION="3D"))

FBM1 = DEFI_FONCTION(
    NOM_PARA="EPSI",
    PROL_DROITE="LINEAIRE",
    PROL_GAUCHE="CONSTANT",
    VALE=(
        5.00000e-04,
        13.1681,
        1.00000e-03,
        25.6939,
        1.50000e-03,
        37.6088,
        2.00000e-03,
        48.9427,
        2.50000e-03,
        59.7238,
        3.00000e-03,
        69.9791,
        3.50000e-03,
        79.734,
        4.00000e-03,
        89.014,
        4.50000e-03,
        97.840,
        5.00000e-03,
        106.237,
# ... 80 like lines cut
    ),
)


FBM2 = DEFI_CONSTANTE(VALE=30.0)

AUS2 = DEFI_CONSTANTE(VALE=30.0)

ALP1 = DEFI_FONCTION(
    NOM_PARA="TEMP",
    PROL_DROITE="CONSTANT",
    PROL_GAUCHE="CONSTANT",
    VALE=(0.0, 15.0e-6, 900.0, 15.0e-6),
)

ALP2 = DEFI_FONCTION(
    NOM_PARA="TEMP",
    PROL_DROITE="CONSTANT",
    PROL_GAUCHE="CONSTANT",
    VALE=(0.0, 23.5e-6, 900.0, 23.5e-6),
)

VISCO1 = DEFI_CONSTANTE(VALE=600.0)

VISCO2 = DEFI_CONSTANTE(VALE=3.5)

VISCO3 = DEFI_CONSTANTE(VALE=0.0)

VISCO4 = DEFI_CONSTANTE(VALE=20.0)

FMEL = DEFI_FONCTION(
    NOM_PARA="META", PROL_DROITE="CONSTANT", PROL_GAUCHE="CONSTANT", VALE=(0.0, 0.0, 1.0, 1.0)
)

YOUNG = DEFI_CONSTANTE(VALE=195000.0)

NU = DEFI_CONSTANTE(VALE=0.3)

ACIER2 = DEFI_MATERIAU(
    ELAS_META_FO=_F(
        E=YOUNG,
        NU=NU,
        F_ALPHA=ALP1,
        C_ALPHA=ALP2,
        TEMP_DEF_ALPHA=700.0,
        PHASE_REFE="CHAUD",
        EPSF_EPSC_TREF=2.52e-3,
        F1_S_VP=FBM2,
        F2_S_VP=FBM2,
        F3_S_VP=FBM2,
        F4_S_VP=FBM2,
        C_S_VP=AUS2,
        S_VP_MELANGE=FMEL,
    ),
    META_TRACTION=_F(SIGM_F1=FBM1, SIGM_F2=FBM1, SIGM_F3=FBM1, SIGM_F4=FBM1, SIGM_C=FBM1),
    META_VISC_FO=_F(
        F1_ETA=VISCO1,
        F2_ETA=VISCO1,
        F3_ETA=VISCO1,
        F4_ETA=VISCO1,
        C_ETA=VISCO1,
        F1_N=VISCO2,
        F2_N=VISCO2,
        F3_N=VISCO2,
        F4_N=VISCO2,
        C_N=VISCO2,
        F1_C=VISCO3,
        F2_C=VISCO3,
        F3_C=VISCO3,
        F4_C=VISCO3,
        C_C=VISCO3,
        F1_M=VISCO4,
        F2_M=VISCO4,
        F3_M=VISCO4,
        F4_M=VISCO4,
        C_M=VISCO4,
    ),
)

CM = AFFE_MATERIAU(
    MAILLAGE=MA,
    AFFE=_F(TOUT="OUI", MATER=ACIER2),
    AFFE_VARC=(
        _F(TOUT="OUI", EVOL=TEMPE, NOM_VARC="M_ACIER", NOM_CHAM="META_ELNO"),
        _F(TOUT="OUI", EVOL=TEMPE, NOM_VARC="TEMP", NOM_CHAM="TEMP", VALE_REF=700),
    ),
)

SIGMA_F = DEFI_FONCTION(
    NOM_PARA="INST",
    PROL_DROITE="EXCLU",
    PROL_GAUCHE="EXCLU",
    VALE=(0.0, 0.0, 10.0, 242.0, 60.0, 242.0),
)

TAU_F = DEFI_FONCTION(
    NOM_PARA="INST",
    PROL_DROITE="EXCLU",
    PROL_GAUCHE="EXCLU",
    VALE=(0.0, 0.0, 10.0, 146.0, 60.0, 146.0),
)

TRACTION = AFFE_CHAR_MECA(MODELE=MO, FORCE_FACE=_F(GROUP_MA="GAUCHE", FX=-1.0))

CISAIL = AFFE_CHAR_MECA(
    MODELE=MO,
    FORCE_FACE=(
        _F(GROUP_MA="GAUCHE", FY=-1.0),
        _F(GROUP_MA="DROITE", FY=1.0),
        _F(GROUP_MA="HAUT", FX=1.0),
        _F(GROUP_MA="BAS", FX=-1.0),
    ),
)

LIAISON = AFFE_CHAR_MECA(
    MODELE=MO,
    DDL_IMPO=(
        _F(GROUP_NO="NO4", DX=0.0, DY=0.0),
        _F(GROUP_NO="NO8", DX=0.0, DY=0.0, DZ=0.0),
        _F(GROUP_NO="NO2", DX=0.0),
        _F(GROUP_NO="NO6", DX=0.0),
    ),
)

L_INST = DEFI_LIST_REEL(
    DEBUT=0.0, INTERVALLE=(_F(JUSQU_A=10.0, NOMBRE=20), _F(JUSQU_A=60.0, NOMBRE=25))
)

DEFLISTM = DEFI_LIST_INST(DEFI_LIST=_F(LIST_INST=L_INST))

U = STAT_NON_LINE(
    MODELE=MO,
    CHAM_MATER=CM,
    EXCIT=(
        _F(CHARGE=LIAISON),
        _F(CHARGE=TRACTION, FONC_MULT=SIGMA_F),
        _F(CHARGE=CISAIL, FONC_MULT=TAU_F),
    ),
    COMPORTEMENT=_F(RELATION="META_V_INL", RELATION_KIT=("ACIER",)),
    INCREMENT=_F(LIST_INST=DEFLISTM),
    NEWTON=_F(MATRICE="TANGENTE", REAC_ITER=1),
    CONVERGENCE=_F(RESI_GLOB_MAXI=1.0e-6, ITER_GLOB_MAXI=50),
    RECH_LINEAIRE=_F(ITER_LINE_MAXI=5),
)

U = CALC_CHAMP(reuse=U, CONTRAINTE=("SIGM_ELNO"), VARI_INTERNE=("VARI_ELNO"), RESULTAT=U)


U = CALC_CHAMP(
    reuse=U, RESULTAT=U, DEFORMATION=("EPSI_ELNO", "EPVC_ELNO", "EPME_ELNO", "EPSP_ELNO")
)


TEST_RESU(
    RESU=(
        _F(
            INST=10.0,
            REFERENCE="AUTRE_ASTER",
            POINT=1,
            RESULTAT=U,
            NOM_CHAM="EPSI_ELNO",
            NOM_CMP="EPXX",
            VALE_CALC=0.010683827,
            VALE_REFE=0.0106503,
            PRECISION=5.0000000000000001e-3,
            GROUP_MA="CUBE",
        ),
        _F(
            INST=10.0,
            REFERENCE="AUTRE_ASTER",
            POINT=1,
            RESULTAT=U,
            NOM_CHAM="EPME_ELNO",
            NOM_CMP="EPXX",
            VALE_CALC=0.010683827,
            VALE_REFE=0.0106503,
            PRECISION=5.0000000000000001e-3,
            GROUP_MA="CUBE",
        ),
        _F(
            INST=10.0,
            REFERENCE="AUTRE_ASTER",
            POINT=1,
            RESULTAT=U,
            NOM_CHAM="EPSP_ELNO",
            NOM_CMP="EPXX",
            VALE_CALC=0.00944280104223,
            VALE_REFE=0.00940933274213,
            PRECISION=5.0000000000000001e-3,
            GROUP_MA="CUBE",
        ),
        _F(
            INST=10.0,
            REFERENCE="AUTRE_ASTER",
            POINT=1,
            RESULTAT=U,
            NOM_CHAM="EPVC_ELNO",
            NOM_CMP="EPTHER_L",
            VALE_CALC=-3.64952904749e-18,
            VALE_REFE=0.0,
            GROUP_MA="CUBE",
            CRITERE="ABSOLU",
            ORDRE_GRANDEUR=1.0e-6,
        ),
        _F(
            INST=10.0,
            REFERENCE="AUTRE_ASTER",
            POINT=1,
            RESULTAT=U,
            NOM_CHAM="EPSI_ELNO",
            NOM_CMP="EPXY",
            VALE_CALC=9.51867808e-03,
            VALE_REFE=9.4883999999999993e-3,
            PRECISION=5.0000000000000001e-3,
            GROUP_MA="CUBE",
        ),
        _F(
            INST=10.0,
            REFERENCE="AUTRE_ASTER",
            POINT=1,
            RESULTAT=U,
            NOM_CHAM="EPME_ELNO",
            NOM_CMP="EPXY",
            VALE_CALC=0.00951867807806,
            VALE_REFE=0.00948839064946,
            PRECISION=5.0000000000000001e-3,
            GROUP_MA="CUBE",
        ),
        _F(
            INST=10.0,
            REFERENCE="AUTRE_ASTER",
            POINT=1,
            RESULTAT=U,
            NOM_CHAM="EPSP_ELNO",
            NOM_CMP="EPXY",
            VALE_CALC=0.00854534474483,
            VALE_REFE=0.00851505731623,
            PRECISION=5.0000000000000001e-3,
            GROUP_MA="CUBE",
        ),
        _F(
            INST=60.0,
            REFERENCE="AUTRE_ASTER",
            POINT=1,
            RESULTAT=U,
            NOM_CHAM="EPSI_ELNO",
            NOM_CMP="EPXX",
            VALE_CALC=0.027678509,
            VALE_REFE=0.027626000000000001,
            PRECISION=5.0000000000000001e-3,
            GROUP_MA="CUBE",
        ),
        _F(
            INST=60.0,
            REFERENCE="AUTRE_ASTER",
            POINT=1,
            RESULTAT=U,
            NOM_CHAM="EPME_ELNO",
            NOM_CMP="EPXX",
            VALE_CALC=0.0276785088359,
            VALE_REFE=0.0276261944777,
            PRECISION=5.0000000000000001e-3,
            GROUP_MA="CUBE",
        ),
        _F(
            INST=60.0,
            REFERENCE="AUTRE_ASTER",
            POINT=1,
            RESULTAT=U,
            NOM_CHAM="EPSP_ELNO",
            NOM_CMP="EPXX",
            VALE_CALC=0.0264374831949,
            VALE_REFE=0.0263851692124,
            PRECISION=5.0000000000000001e-3,
            GROUP_MA="CUBE",
        ),
        _F(
            INST=60.0,
            REFERENCE="AUTRE_ASTER",
            POINT=1,
            RESULTAT=U,
            NOM_CHAM="EPSI_ELNO",
            NOM_CMP="EPXY",
            VALE_CALC=0.024898163,
            VALE_REFE=0.024851000000000002,
            PRECISION=5.0000000000000001e-3,
            GROUP_MA="CUBE",
        ),
        _F(
            INST=60.0,
            REFERENCE="AUTRE_ASTER",
            POINT=1,
            RESULTAT=U,
            NOM_CHAM="EPME_ELNO",
            NOM_CMP="EPXY",
            VALE_CALC=0.0248981631667,
            VALE_REFE=0.0248508208343,
            PRECISION=5.0000000000000001e-3,
            GROUP_MA="CUBE",
        ),
        _F(
            INST=60.0,
            REFERENCE="AUTRE_ASTER",
            POINT=1,
            RESULTAT=U,
            NOM_CHAM="EPSP_ELNO",
            NOM_CMP="EPXY",
            VALE_CALC=0.0239248298334,
            VALE_REFE=0.023877487841,
            PRECISION=5.0000000000000001e-3,
            GROUP_MA="CUBE",
        ),
    )
)

FIN()
#
#
