# coding=utf-8
# --------------------------------------------------------------------
# Copyright (C) 1991 - 2025 - EDF R&D - www.code-aster.org
# This file is part of code_aster.
#
# code_aster is free software: you can redistribute it and/or modify
# it under the terms of the GNU General Public License as published by
# the Free Software Foundation, either version 3 of the License, or
# (at your option) any later version.
#
# code_aster is distributed in the hope that it will be useful,
# but WITHOUT ANY WARRANTY; without even the implied warranty of
# MERCHANTABILITY or FITNESS FOR A PARTICULAR PURPOSE.  See the
# GNU General Public License for more details.
#
# You should have received a copy of the GNU General Public License
# along with code_aster.  If not, see <http://www.gnu.org/licenses/>.
# --------------------------------------------------------------------

# (AVEC PLASTICITE DE TRANSFORMATION)
# CAS_TEST__: HSNV102B
# HSNV102B                COMMANDES            11/12/92
# BARREAU CYLINDRIQUE COUPLE EN TRCTION SIMPLE
# MODELISATION AXIS_META  (ELEMENTS AXISYMETRIQUES METALLURGIQUES)
#             13 NOEUDS  2 MAILLES QUAD8
# ======================================================================

DEBUT(
    CODE="OUI",
    ERREUR=_F(ALARME="EXCEPTION"),
    BASE=_F(FICHIER="GLOBALE", LONG_REPE=7000),
    DEBUG=_F(SDVERI="OUI"),
)

MAIL = LIRE_MAILLAGE(FORMAT="ASTER")

TRCMNDA = DEFI_TRC(
    HIST_EXP=(
        _F(
            VALE=(
                -1.106e00,
                1.100e01,
                8.563e00,
                -2.760e-02,
                1.220e-04,
                -2.955e-07,
                3.402e-10,
                -1.517e-13,
                0.000e00,
                0.000e00,
                0.000e00,
                8.360e02,
                0.000e00,
                0.000e00,
                0.000e00,
                3.880e02,
            )
        ),
        _F(
            VALE=(
                -2.206e00,
                1.100e01,
                8.563e00,
                -2.760e-02,
                1.220e-04,
                -2.955e-07,
                3.402e-10,
                -1.517e-13,
                0.000e00,
                0.000e00,
                0.000e00,
                8.360e02,
                0.000e00,
                0.000e00,
                0.000e00,
                3.880e02,
            )
        ),
        _F(
            VALE=(
                -3.497e00,
                1.100e01,
                8.563e00,
                -2.760e-02,
                1.220e-04,
                -2.955e-07,
                3.402e-10,
                -1.517e-13,
                0.000e00,
                0.000e00,
                0.000e00,
                8.360e02,
                0.000e00,
                0.000e00,
                0.000e00,
                3.880e02,
            )
        ),
        _F(
            VALE=(
                -4.402e00,
                1.100e01,
                8.563e00,
                -2.760e-02,
                1.220e-04,
                -2.955e-07,
                3.402e-10,
                -1.517e-13,
                0.000e00,
                0.000e00,
                0.000e00,
                8.360e02,
                0.000e00,
                0.000e00,
                0.000e00,
                3.880e02,
            )
        ),
        _F(
            VALE=(
                -5.542e00,
                1.100e01,
                8.563e00,
                -2.760e-02,
                1.220e-04,
                -2.955e-07,
                3.402e-10,
                -1.517e-13,
                0.000e00,
                0.000e00,
                0.000e00,
                8.360e02,
                0.000e00,
                0.000e00,
                0.000e00,
                3.880e02,
            )
        ),
        _F(
            VALE=(
                -6.977e00,
                1.100e01,
                8.563e00,
                -2.760e-02,
                1.220e-04,
                -2.955e-07,
                3.402e-10,
                -1.517e-13,
                0.000e00,
                0.000e00,
                0.000e00,
                8.360e02,
                0.000e00,
                0.000e00,
                0.000e00,
                3.880e02,
            )
        ),
        _F(
            VALE=(
                -8.784e00,
                1.100e01,
                8.563e00,
                -2.760e-02,
                1.220e-04,
                -2.955e-07,
                3.402e-10,
                -1.517e-13,
                0.000e00,
                0.000e00,
                0.000e00,
                8.360e02,
                0.000e00,
                0.000e00,
                0.000e00,
                3.880e02,
            )
        ),
        _F(
            VALE=(
                -1.106e01,
                1.100e01,
                8.563e00,
                -2.760e-02,
                1.220e-04,
                -2.955e-07,
                3.402e-10,
                -1.517e-13,
                0.000e00,
                0.000e00,
                0.000e00,
                8.360e02,
                0.000e00,
                0.000e00,
                0.000e00,
                3.880e02,
            )
        ),
        _F(
            VALE=(
                -1.392e01,
                1.100e01,
                8.563e00,
                -2.760e-02,
                1.220e-04,
                -2.955e-07,
                3.402e-10,
                -1.517e-13,
                0.000e00,
                0.000e00,
                0.000e00,
                8.360e02,
                0.000e00,
                0.000e00,
                0.000e00,
                3.880e02,
            )
        ),
        _F(
            VALE=(
                -1.753e01,
                1.100e01,
                8.563e00,
                -2.760e-02,
                1.220e-04,
                -2.955e-07,
                3.402e-10,
                -1.517e-13,
                0.000e00,
                0.000e00,
                0.000e00,
                8.360e02,
                0.000e00,
                0.000e00,
                0.000e00,
                3.880e02,
            )
        ),
        _F(
            VALE=(
                -2.206e01,
                1.100e01,
                8.563e00,
                -2.760e-02,
                1.220e-04,
                -2.955e-07,
                3.402e-10,
                -1.517e-13,
                0.000e00,
                0.000e00,
                0.000e00,
                8.360e02,
                0.000e00,
                0.000e00,
                0.000e00,
                3.880e02,
            )
        ),
    ),
    TEMP_MS=_F(SEUIL=4.500e-01, AKM=-3.125e01, BKM=1.406e01, TPLM=-3.497e00),
)

ACIER = DEFI_MATERIAU(
    THER=_F(RHO_CP=2000000.0, LAMBDA=9999.9),
    META_ACIER=_F(
        TRC=TRCMNDA,
        AR3=830.0,
        ALPHA=-0.0300,
        MS0=650.0,
        AC1=724.0,
        AC3=846.0,
        TAUX_1=0.34,
        TAUX_3=0.34,
    ),
)

CHMAT = AFFE_MATERIAU(MAILLAGE=MAIL, AFFE=_F(TOUT="OUI", MATER=ACIER))

MOTH = AFFE_MODELE(MAILLAGE=MAIL, AFFE=_F(TOUT="OUI", MODELISATION="AXIS", PHENOMENE="THERMIQUE"))

TIMPO = DEFI_FONCTION(
    NOM_PARA="INST",
    NOM_RESU="TEMP",
    VALE=(0.0, 900.0, 90.0, 0.0),
    PROL_GAUCHE="LINEAIRE",
    PROL_DROITE="LINEAIRE",
    INTERPOL="LIN",
)

CHTH = AFFE_CHAR_THER_F(MODELE=MOTH, TEMP_IMPO=_F(TOUT="OUI", TEMP=TIMPO))

LR8 = DEFI_LIST_REEL(DEBUT=0.0, INTERVALLE=_F(JUSQU_A=90.0, NOMBRE=45))
DEFLISTT = DEFI_LIST_INST(DEFI_LIST=_F(LIST_INST=LR8))

PHASINIT = CREA_CHAMP(
    OPERATION="AFFE",
    TYPE_CHAM="CART_VAR2_R",
    MAILLAGE=MAIL,
    AFFE=_F(
        TOUT="OUI",
        NOM_CMP=("V1", "V2", "V3", "V4", "V5", "V6", "V7"),
        VALE=(0.0, 0.0, 0.0, 0.0, 1.0, 0.0, 10.0),
    ),
)

TEMPE = THER_LINEAIRE(
    MODELE=MOTH,
    CHAM_MATER=CHMAT,
    PARM_THETA=0.57,
    EXCIT=_F(CHARGE=CHTH),
    INCREMENT=_F(LIST_INST=DEFLISTT),
    ETAT_INIT=_F(VALE=900.0),
)

TEMPE = CALC_META(
    reuse=TEMPE,
    RESULTAT=TEMPE,
    ETAT_INIT=_F(META_INIT_ELNO=PHASINIT),
    COMPORTEMENT=_F(RELATION="ACIER", TOUT="OUI"),
    OPTION="META_ELNO",
)

FBM1 = DEFI_FONCTION(
    NOM_PARA="TEMP",
    PROL_DROITE="LINEAIRE",
    PROL_GAUCHE="LINEAIRE",
    VALE=(
        0.0,
        5258.03e6,
        20.0,
        5144.19e6,
        40.0,
        5030.22e6,
        60.0,
        4916.11e6,
        80.0,
        4801.87e6,
        100.0,
        4687.50e6,
        120.0,
        4572.99e6,
        140.0,
        4458.35e6,
        160.0,
        4343.57e6,
        180.0,
        4228.66e6,
# ... 72 like lines cut
    ),
)

FBM2 = DEFI_FONCTION(
    NOM_PARA="TEMP",
    PROL_DROITE="LINEAIRE",
    PROL_GAUCHE="LINEAIRE",
    VALE=(0.0, 950.0e6, 900.0, 50.0e6),
)

AUS1 = DEFI_FONCTION(
    NOM_PARA="TEMP",
    PROL_DROITE="LINEAIRE",
    PROL_GAUCHE="LINEAIRE",
    VALE=(
        0.0,
        896.00e6,
        20.0,
        876.14e6,
        40.0,
        856.32e6,
        60.0,
        836.49e6,
        80.0,
        816.65e6,
        100.0,
        796.81e6,
        120.0,
        776.97e6,
        140.0,
        757.12e6,
        160.0,
        737.27e6,
        180.0,
        717.42e6,
# ... 72 like lines cut
    ),
)

AUS2 = DEFI_FONCTION(
    NOM_PARA="TEMP",
    PROL_DROITE="LINEAIRE",
    PROL_GAUCHE="LINEAIRE",
    VALE=(0.0, 1220.0e6, 900.0, 50.0e6),
)

ALP1 = DEFI_FONCTION(
    NOM_PARA="TEMP",
    PROL_DROITE="CONSTANT",
    PROL_GAUCHE="CONSTANT",
    VALE=(0.0, 15.0e-6, 900.0, 15.0e-6),
)

ALP2 = DEFI_FONCTION(
    NOM_PARA="TEMP",
    PROL_DROITE="CONSTANT",
    PROL_GAUCHE="CONSTANT",
    VALE=(0.0, 23.5e-6, 900.0, 23.5e-6),
)

FPRIM = DEFI_FONCTION(
    NOM_PARA="META", PROL_DROITE="LINEAIRE", PROL_GAUCHE="LINEAIRE", VALE=(0.0, 2.0, 1.0, 0.0)
)

FMEL = DEFI_FONCTION(
    NOM_PARA="META", PROL_DROITE="CONSTANT", PROL_GAUCHE="CONSTANT", VALE=(0.0, 0.0, 1.0, 1.0)
)

YOUNG = DEFI_CONSTANTE(VALE=200000.0e6)

NU = DEFI_CONSTANTE(VALE=0.3)

ACIER2 = DEFI_MATERIAU(
    ELAS_META_FO=_F(
        E=YOUNG,
        NU=NU,
        F_ALPHA=ALP1,
        C_ALPHA=ALP2,
        PHASE_REFE="CHAUD",
        EPSF_EPSC_TREF=2.52e-3,
        F1_SY=FBM2,
        F2_SY=FBM2,
        F3_SY=FBM2,
        F4_SY=FBM2,
        C_SY=AUS2,
        SY_MELANGE=FMEL,
        TEMP_DEF_ALPHA=900.0,
    ),
    META_ECRO_LINE=_F(
        F1_D_SIGM_EPSI=FBM1,
        F2_D_SIGM_EPSI=FBM1,
        F3_D_SIGM_EPSI=FBM1,
        F4_D_SIGM_EPSI=FBM1,
        C_D_SIGM_EPSI=AUS1,
    ),
    META_PT=_F(
        F1_K=0.0,
        F2_K=0.0,
        F3_K=1.0e-10,
        F4_K=1.0e-10,
        F1_D_F_META=FPRIM,
        F2_D_F_META=FPRIM,
        F3_D_F_META=FPRIM,
        F4_D_F_META=FPRIM,
    ),
)

CM2 = AFFE_MATERIAU(
    MAILLAGE=MAIL,
    AFFE=_F(TOUT="OUI", MATER=ACIER2),
    AFFE_VARC=(
        _F(TOUT="OUI", EVOL=TEMPE, NOM_VARC="M_ACIER", NOM_CHAM="META_ELNO"),
        _F(TOUT="OUI", EVOL=TEMPE, NOM_VARC="TEMP", NOM_CHAM="TEMP", VALE_REF=900),
    ),
)

MO = AFFE_MODELE(MAILLAGE=MAIL, AFFE=_F(TOUT="OUI", PHENOMENE="MECANIQUE", MODELISATION="AXIS"))

CH_FO = AFFE_CHAR_MECA(
    MODELE=MO,
    FORCE_CONTOUR=_F(GROUP_MA="M3", FY=1.0),
    DDL_IMPO=(_F(GROUP_NO="N4", DY=0.0), _F(GROUP_NO="N2", DY=0.0), _F(GROUP_NO="N5", DY=0.0)),
)

RAMPE = DEFI_FONCTION(
    NOM_PARA="INST",
    PROL_GAUCHE="LINEAIRE",
    PROL_DROITE="LINEAIRE",
    VALE=(0.0, 0.0, 100.0, 1500.0e6),
)

L_INST = DEFI_LIST_REEL(
    DEBUT=0.0,
    INTERVALLE=(
        _F(JUSQU_A=24.0, NOMBRE=6),
        _F(JUSQU_A=34.0, NOMBRE=50),
        _F(JUSQU_A=44.0, NOMBRE=10),
        _F(JUSQU_A=90.0, NOMBRE=13),
    ),
)

DEFLISTM = DEFI_LIST_INST(DEFI_LIST=_F(LIST_INST=L_INST))

U = STAT_NON_LINE(
    MODELE=MO,
    CHAM_MATER=CM2,
    EXCIT=_F(CHARGE=CH_FO, FONC_MULT=RAMPE),
    COMPORTEMENT=_F(RELATION="META_P_IL_PT", RELATION_KIT=("ACIER",)),
    INCREMENT=_F(LIST_INST=DEFLISTM, NUME_INST_FIN=79),
    NEWTON=_F(MATRICE="TANGENTE", REAC_ITER=1),
    CONVERGENCE=_F(RESI_GLOB_RELA=1.0e-6, ITER_GLOB_MAXI=40),
)

U = CALC_CHAMP(
    reuse=U,
    CONTRAINTE=("SIGM_ELNO"),
    VARI_INTERNE=("VARI_ELNO"),
    DEFORMATION=("EPSI_ELNO", "EPVC_ELNO", "EPME_ELNO", "EPSP_ELNO"),
    RESULTAT=U,
)


CHVAR24 = CREA_CHAMP(
    OPERATION="EXTR", TYPE_CHAM="ELNO_VARI_R", RESULTAT=U, NOM_CHAM="VARI_ELNO", INST=24.0
)

CHSIG24 = CREA_CHAMP(
    OPERATION="EXTR", TYPE_CHAM="ELNO_SIEF_R", RESULTAT=U, NOM_CHAM="SIGM_ELNO", INST=24.0
)

CHEPS24 = CREA_CHAMP(
    OPERATION="EXTR", TYPE_CHAM="ELNO_EPSI_R", RESULTAT=U, NOM_CHAM="EPSI_ELNO", INST=24.0
)

CHEPT24 = CREA_CHAMP(
    OPERATION="EXTR", TYPE_CHAM="ELNO_EPSI_R", RESULTAT=U, NOM_CHAM="EPVC_ELNO", INST=24.0
)

CHEPM24 = CREA_CHAMP(
    OPERATION="EXTR", TYPE_CHAM="ELNO_EPSI_R", RESULTAT=U, NOM_CHAM="EPME_ELNO", INST=24.0
)

CHEPP24 = CREA_CHAMP(
    OPERATION="EXTR", TYPE_CHAM="ELNO_EPSI_R", RESULTAT=U, NOM_CHAM="EPSP_ELNO", INST=24.0
)
#
CHVAR26 = CREA_CHAMP(
    OPERATION="EXTR", TYPE_CHAM="ELNO_VARI_R", RESULTAT=U, NOM_CHAM="VARI_ELNO", INST=26.0
)

CHSIG26 = CREA_CHAMP(
    OPERATION="EXTR", TYPE_CHAM="ELNO_SIEF_R", RESULTAT=U, NOM_CHAM="SIGM_ELNO", INST=26.0
)

CHEPS26 = CREA_CHAMP(
    OPERATION="EXTR", TYPE_CHAM="ELNO_EPSI_R", RESULTAT=U, NOM_CHAM="EPSI_ELNO", INST=26.0
)

CHEPT26 = CREA_CHAMP(
    OPERATION="EXTR", TYPE_CHAM="ELNO_EPSI_R", RESULTAT=U, NOM_CHAM="EPVC_ELNO", INST=26.0
)

CHEPM26 = CREA_CHAMP(
    OPERATION="EXTR", TYPE_CHAM="ELNO_EPSI_R", RESULTAT=U, NOM_CHAM="EPME_ELNO", INST=26.0
)

CHEPP26 = CREA_CHAMP(
    OPERATION="EXTR", TYPE_CHAM="ELNO_EPSI_R", RESULTAT=U, NOM_CHAM="EPSP_ELNO", INST=26.0
)
#
CHVAR40 = CREA_CHAMP(
    OPERATION="EXTR", TYPE_CHAM="ELNO_VARI_R", RESULTAT=U, NOM_CHAM="VARI_ELNO", INST=40.0
)

CHSIG40 = CREA_CHAMP(
    OPERATION="EXTR", TYPE_CHAM="ELNO_SIEF_R", RESULTAT=U, NOM_CHAM="SIGM_ELNO", INST=40.0
)

CHEPS40 = CREA_CHAMP(
    OPERATION="EXTR", TYPE_CHAM="ELNO_EPSI_R", RESULTAT=U, NOM_CHAM="EPSI_ELNO", INST=40.0
)

CHEPT40 = CREA_CHAMP(
    OPERATION="EXTR", TYPE_CHAM="ELNO_EPSI_R", RESULTAT=U, NOM_CHAM="EPVC_ELNO", INST=40.0
)

CHEPM40 = CREA_CHAMP(
    OPERATION="EXTR", TYPE_CHAM="ELNO_EPSI_R", RESULTAT=U, NOM_CHAM="EPME_ELNO", INST=40.0
)

CHEPP40 = CREA_CHAMP(
    OPERATION="EXTR", TYPE_CHAM="ELNO_EPSI_R", RESULTAT=U, NOM_CHAM="EPSP_ELNO", INST=40.0
)
#
CHVAR90 = CREA_CHAMP(
    OPERATION="EXTR", TYPE_CHAM="ELNO_VARI_R", RESULTAT=U, NOM_CHAM="VARI_ELNO", INST=90.0
)

CHSIG90 = CREA_CHAMP(
    OPERATION="EXTR", TYPE_CHAM="ELNO_SIEF_R", RESULTAT=U, NOM_CHAM="SIGM_ELNO", INST=90.0
)

CHEPS90 = CREA_CHAMP(
    OPERATION="EXTR", TYPE_CHAM="ELNO_EPSI_R", RESULTAT=U, NOM_CHAM="EPSI_ELNO", INST=90.0
)

CHEPT90 = CREA_CHAMP(
    OPERATION="EXTR", TYPE_CHAM="ELNO_EPSI_R", RESULTAT=U, NOM_CHAM="EPVC_ELNO", INST=90.0
)

CHEPM90 = CREA_CHAMP(
    OPERATION="EXTR", TYPE_CHAM="ELNO_EPSI_R", RESULTAT=U, NOM_CHAM="EPME_ELNO", INST=90.0
)

CHEPP90 = CREA_CHAMP(
    OPERATION="EXTR", TYPE_CHAM="ELNO_EPSI_R", RESULTAT=U, NOM_CHAM="EPSP_ELNO", INST=90.0
)
#
# ------------------------------------------------------------------
#
TEST_RESU(
    CHAM_ELEM=(
        # INST = 24
        _F(
            GROUP_NO="N13",
            CRITERE="ABSOLU",
            NOM_CMP="V5",
            GROUP_MA="M1",
            CHAM_GD=CHVAR24,
            VALE_CALC=0.0e00,
            VALE_REFE=0.0,
            REFERENCE="ANALYTIQUE",
            ORDRE_GRANDEUR=1.0e-6,
        ),
        _F(
            GROUP_NO="N13",
            CRITERE="ABSOLU",
            NOM_CMP="V8",
            GROUP_MA="M1",
            CHAM_GD=CHVAR24,
            VALE_CALC=0.0e00,
            VALE_REFE=0.0,
            REFERENCE="ANALYTIQUE",
            ORDRE_GRANDEUR=1.0e-6,
        ),
        _F(
            GROUP_NO="N13",
            CRITERE="RELATIF",
            NOM_CMP="SIYY",
            GROUP_MA="M1",
            CHAM_GD=CHSIG24,
            VALE_CALC=3.5999983273579e08,
            VALE_REFE=3.60000000e8,
            REFERENCE="ANALYTIQUE",
        ),
        _F(
            GROUP_NO="N13",
            CRITERE="RELATIF",
            NOM_CMP="EPYY",
            GROUP_MA="M1",
            CHAM_GD=CHEPS24,
            VALE_CALC=-3.840000491808e-03,
            VALE_REFE=-3.8400000000000001e-3,
            REFERENCE="ANALYTIQUE",
        ),
        _F(
            GROUP_NO="N13",
            CRITERE="RELATIF",
            NOM_CMP="EPTHER_L",
            GROUP_MA="M1",
            CHAM_GD=CHEPT24,
            VALE_CALC=-0.005640,
            VALE_REFE=-0.005640,
            REFERENCE="ANALYTIQUE",
        ),
        _F(
            GROUP_NO="N13",
            CRITERE="RELATIF",
            NOM_CMP="EPYY",
            GROUP_MA="M1",
            CHAM_GD=CHEPM24,
            VALE_CALC=0.00179999950819,
            VALE_REFE=0.0018,
            REFERENCE="ANALYTIQUE",
        ),
        _F(
            GROUP_NO="N13",
            CRITERE="ABSOLU",
            NOM_CMP="EPYY",
            GROUP_MA="M1",
            CHAM_GD=CHEPP24,
            VALE_CALC=0.0e00,
            VALE_REFE=0.0,
            REFERENCE="ANALYTIQUE",
            ORDRE_GRANDEUR=1.0e-6,
        ),
        # INST = 26
        _F(
            GROUP_NO="N13",
            CRITERE="RELATIF",
            NOM_CMP="V5",
            REFERENCE="ANALYTIQUE",
            GROUP_MA="M1",
            CHAM_GD=CHVAR26,
            VALE_CALC=0.037217300192885834,
            VALE_REFE=0.037217,
        ),
        _F(
            GROUP_NO="N13",
            CRITERE="RELATIF",
            NOM_CMP="V8",
            GROUP_MA="M1",
            CHAM_GD=CHVAR26,
            VALE_CALC=1.0,
            VALE_REFE=1.0,
            REFERENCE="ANALYTIQUE",
        ),
        _F(
            GROUP_NO="N13",
            CRITERE="RELATIF",
            NOM_CMP="SIYY",
            GROUP_MA="M1",
            CHAM_GD=CHSIG26,
            VALE_CALC=3.8999985521818e08,
            VALE_REFE=3.90000000e8,
            REFERENCE="ANALYTIQUE",
        ),
        _F(
            GROUP_NO="N13",
            CRITERE="RELATIF",
            NOM_CMP="EPYY",
            REFERENCE="ANALYTIQUE",
            PRECISION=0.010999999999999999,
            GROUP_MA="M1",
            CHAM_GD=CHEPS26,
            VALE_CALC=0.050984312543286926,
            VALE_REFE=0.051507,
        ),
        _F(
            GROUP_NO="N13",
            CRITERE="RELATIF",
            NOM_CMP="EPTHER_L",
            GROUP_MA="M1",
            CHAM_GD=CHEPT26,
            VALE_CALC=-0.00488407018382,
            VALE_REFE=-0.004884,
            REFERENCE="ANALYTIQUE",
        ),
        _F(
            GROUP_NO="N13",
            CRITERE="RELATIF",
            NOM_CMP="EPYY",
            GROUP_MA="M1",
            CHAM_GD=CHEPM26,
            VALE_CALC=0.05586838272711145,
            VALE_REFE=0.05639,
            REFERENCE="ANALYTIQUE",
            PRECISION=0.010,
        ),
        _F(
            GROUP_NO="N13",
            CRITERE="RELATIF",
            NOM_CMP="EPYY",
            GROUP_MA="M1",
            CHAM_GD=CHEPP26,
            VALE_CALC=0.0539183825678355,
            VALE_REFE=0.05444,
            REFERENCE="ANALYTIQUE",
            PRECISION=0.010,
        ),
        # INST = 40
        _F(
            GROUP_NO="N13",
            CRITERE="RELATIF",
            NOM_CMP="V4",
            REFERENCE="ANALYTIQUE",
            GROUP_MA="M1",
            CHAM_GD=CHVAR40,
            VALE_CALC=0.06252343527530961,
            VALE_REFE=0.062523,
        ),
        _F(
            GROUP_NO="N13",
            CRITERE="RELATIF",
            NOM_CMP="V8",
            GROUP_MA="M1",
            CHAM_GD=CHVAR40,
            VALE_CALC=1.0,
            VALE_REFE=1.0,
            REFERENCE="ANALYTIQUE",
        ),
        _F(
            GROUP_NO="N13",
            CRITERE="RELATIF",
            NOM_CMP="SIYY",
            GROUP_MA="M1",
            CHAM_GD=CHSIG40,
            VALE_CALC=5.999996756526e08,
            VALE_REFE=6.0e8,
            REFERENCE="ANALYTIQUE",
        ),
        _F(
            GROUP_NO="N13",
            CRITERE="RELATIF",
            NOM_CMP="EPYY",
            REFERENCE="ANALYTIQUE",
            PRECISION=0.010999999999999999,
            GROUP_MA="M1",
            CHAM_GD=CHEPS40,
            VALE_CALC=0.10091527725955,
            VALE_REFE=0.101970,
        ),
        _F(
            GROUP_NO="N13",
            CRITERE="RELATIF",
            NOM_CMP="EPTHER_L",
            GROUP_MA="M1",
            CHAM_GD=CHEPT40,
            VALE_CALC=-0.00354576525951,
            VALE_REFE=-0.003546,
            REFERENCE="ANALYTIQUE",
        ),
        _F(
            GROUP_NO="N13",
            CRITERE="RELATIF",
            NOM_CMP="EPYY",
            GROUP_MA="M1",
            CHAM_GD=CHEPM40,
            VALE_CALC=0.104461042449,
            VALE_REFE=0.105516,
            REFERENCE="ANALYTIQUE",
            PRECISION=0.011,
        ),
        _F(
            GROUP_NO="N13",
            CRITERE="RELATIF",
            NOM_CMP="EPYY",
            GROUP_MA="M1",
            CHAM_GD=CHEPP40,
            VALE_CALC=0.101461042849,
            VALE_REFE=0.102516,
            REFERENCE="ANALYTIQUE",
            PRECISION=0.011,
        ),
        # INST = 90
        _F(
            GROUP_NO="N13",
            CRITERE="RELATIF",
            NOM_CMP="V4",
            GROUP_MA="M1",
            CHAM_GD=CHVAR90,
            VALE_CALC=0.07414613359746049,
            VALE_REFE=0.0741,
            REFERENCE="ANALYTIQUE",
        ),
        _F(
            GROUP_NO="N13",
            CRITERE="RELATIF",
            NOM_CMP="V8",
            GROUP_MA="M1",
            CHAM_GD=CHVAR90,
            VALE_CALC=1.0,
            VALE_REFE=1.0,
            REFERENCE="ANALYTIQUE",
        ),
        _F(
            GROUP_NO="N13",
            CRITERE="RELATIF",
            NOM_CMP="SIYY",
            GROUP_MA="M1",
            CHAM_GD=CHSIG90,
            VALE_CALC=1.3499990964823e09,
            VALE_REFE=1.350000000e9,
            REFERENCE="ANALYTIQUE",
        ),
        _F(
            GROUP_NO="N13",
            CRITERE="RELATIF",
            NOM_CMP="EPYY",
            REFERENCE="ANALYTIQUE",
            PRECISION=1.0e-2,
            GROUP_MA="M1",
            CHAM_GD=CHEPS90,
            VALE_CALC=0.10879631486090575,
            VALE_REFE=0.10983999999999999,
        ),
        _F(
            GROUP_NO="N13",
            CRITERE="RELATIF",
            NOM_CMP="EPTHER_L",
            GROUP_MA="M1",
            CHAM_GD=CHEPT90,
            VALE_CALC=-0.0110420039126,
            VALE_REFE=-0.01098,
            REFERENCE="ANALYTIQUE",
            PRECISION=0.006,
        ),
        _F(
            GROUP_NO="N13",
            CRITERE="RELATIF",
            NOM_CMP="EPYY",
            GROUP_MA="M1",
            CHAM_GD=CHEPM90,
            VALE_CALC=0.11983831877347703,
            VALE_REFE=0.12082,
            REFERENCE="ANALYTIQUE",
            PRECISION=0.011,
        ),
        _F(
            GROUP_NO="N13",
            CRITERE="RELATIF",
            NOM_CMP="EPYY",
            GROUP_MA="M1",
            CHAM_GD=CHEPP90,
            VALE_CALC=0.11308831821547466,
            VALE_REFE=0.11407,
            REFERENCE="ANALYTIQUE",
            PRECISION=0.011,
        ),
    )
)
#
FIN()
#
