# coding=utf-8
# --------------------------------------------------------------------
# Copyright (C) 1991 - 2025 - EDF R&D - www.code-aster.org
# This file is part of code_aster.
#
# code_aster is free software: you can redistribute it and/or modify
# it under the terms of the GNU General Public License as published by
# the Free Software Foundation, either version 3 of the License, or
# (at your option) any later version.
#
# code_aster is distributed in the hope that it will be useful,
# but WITHOUT ANY WARRANTY; without even the implied warranty of
# MERCHANTABILITY or FITNESS FOR A PARTICULAR PURPOSE.  See the
# GNU General Public License for more details.
#
# You should have received a copy of the GNU General Public License
# along with code_aster.  If not, see <http://www.gnu.org/licenses/>.
# --------------------------------------------------------------------

# AVEC ECROUISSAGE NON LINEAIRE
# BARREAU CYLINDRIQUE EN TRACTION
# MODELISATION AXIS GRANDES DEFORMATIONS
# ==================================================================

DEBUT(CODE="OUI", DEBUG=_F(SDVERI="NON"))
# SDVERI='NON' car la verification est trop couteuse en CPU

MAIL = LIRE_MAILLAGE(FORMAT="ASTER")

TRC = DEFI_TRC(
    HIST_EXP=(
        _F(
            VALE=(
                -1.000e00,
                1.000e01,
                0.000e00,
                0.0000e00,
                0.000e00,
                0.000e00,
                0.000e00,
                0.0000e00,
                0.000e00,
                0.000e00,
                0.000e00,
                8.3000e02,
                0.000e00,
                0.000e00,
                0.000e00,
                5.6520e02,
                0.000e00,
                0.000e00,
                1.000e-02,
                5.6000e02,
# ... 52 like lines cut
            )
        ),
        _F(
            VALE=(
                -3.400e00,
                1.000e01,
                0.000e00,
                0.0000e00,
                0.000e00,
                0.000e00,
                0.000e00,
                0.0000e00,
                0.000e00,
                0.000e00,
                0.000e00,
                8.3000e02,
                0.000e00,
                0.000e00,
                0.000e00,
                5.6530e02,
                0.000e00,
                0.000e00,
                1.000e-02,
                5.6000e02,
# ... 32 like lines cut
            )
        ),
        _F(
            VALE=(
                -8.000e00,
                1.000e01,
                0.000e00,
                0.000e00,
                0.000e00,
                0.000e00,
                0.000e00,
                0.000e00,
                0.000e00,
                0.000e00,
                0.000e00,
                8.300e02,
                0.000e00,
                0.000e00,
                0.000e00,
                5.570e02,
                0.000e00,
                0.000e00,
                1.000e-02,
                5.500e02,
# ... 32 like lines cut
            )
        ),
    ),
    TEMP_MS=_F(SEUIL=4.500e-01, AKM=-3.125e01, BKM=1.406e01, TPLM=-3.497e00),
    GRAIN_AUST=_F(DREF=11.00e-6, A=11200.0),
)

PHASINIT = CREA_CHAMP(
    OPERATION="AFFE",
    TYPE_CHAM="CART_VAR2_R",
    MAILLAGE=MAIL,
    AFFE=_F(
        TOUT="OUI",
        NOM_CMP=("V1", "V2", "V3", "V4", "V5", "V6", "V7"),
        VALE=(0.7, 0.0, 0.3, 0.0, 0.0, 1.0, 0.0),
    ),
)

MOTH = AFFE_MODELE(MAILLAGE=MAIL, AFFE=_F(TOUT="OUI", PHENOMENE="THERMIQUE", MODELISATION="AXIS"))

ACIER = DEFI_MATERIAU(
    THER=_F(RHO_CP=5.260000e-3, LAMBDA=33.5e-3),
    META_ACIER=_F(
        TRC=TRC,
        AR3=830.0,
        ALPHA=-0.0306,
        MS0=400.0,
        AC1=724.0,
        AC3=846.0,
        TAUX_1=0.034,
        TAUX_3=0.034,
    ),
)

CHMAT = AFFE_MATERIAU(MAILLAGE=MAIL, AFFE=_F(TOUT="OUI", MATER=ACIER))

TIMPO = DEFI_FONCTION(
    NOM_RESU="TEMP",
    NOM_PARA="INST",
    VALE=(0.0, 20.0, 1.0, 120.0, 2.0, 120.0),
    PROL_DROITE="CONSTANT",
    PROL_GAUCHE="LINEAIRE",
)

LIST_T = DEFI_LIST_REEL(
    DEBUT=0.0, INTERVALLE=(_F(JUSQU_A=1.0, NOMBRE=1), _F(JUSQU_A=2.0, NOMBRE=200))
)

CHTH = CREA_CHAMP(
    OPERATION="AFFE",
    TYPE_CHAM="NOEU_TEMP_F",
    MAILLAGE=MAIL,
    AFFE=_F(TOUT="OUI", NOM_CMP="TEMP", VALE_F=TIMPO),
)

TEMPE = CREA_RESU(
    OPERATION="AFFE",
    TYPE_RESU="EVOL_THER",
    AFFE=_F(NOM_CHAM="TEMP", CHAM_GD=CHTH, LIST_INST=LIST_T),
)

TEMPE = CALC_META(
    reuse=TEMPE,
    RESULTAT=TEMPE,
    MODELE=MOTH,
    CHAM_MATER=CHMAT,
    ETAT_INIT=_F(META_INIT_ELNO=PHASINIT),
    COMPORTEMENT=_F(RELATION="ACIER", TOUT="OUI"),
    OPTION="META_ELNO",
)

# CALCUL MECANIQUE

MOMECA = AFFE_MODELE(MAILLAGE=MAIL, AFFE=_F(TOUT="OUI", PHENOMENE="MECANIQUE", MODELISATION="AXIS"))

COU_T20 = DEFI_FONCTION(NOM_PARA="EPSI", PROL_DROITE="LINEAIRE", VALE=(0.99, 250.0))

COU_T120 = DEFI_FONCTION(
    NOM_PARA="EPSI",
    PROL_DROITE="LINEAIRE",
    VALE=(0.0105, 90.0, 0.032, 160.0, 0.064, 220.0, 0.1125, 250.0, 0.1815, 270.0),
)

COU_TRAC = DEFI_NAPPE(
    NOM_PARA="TEMP",
    PARA=(20.0, 120.0),
    FONCTION=(COU_T20, COU_T120),
    PROL_GAUCHE="CONSTANT",
    PROL_DROITE="CONSTANT",
)

SIGY = DEFI_FONCTION(NOM_PARA="TEMP", PROL_DROITE="CONSTANT", VALE=(20.0, 100.0, 120.0, 100.0))

YOUNG = DEFI_CONSTANTE(VALE=200000.0)

NU = DEFI_CONSTANTE(VALE=0.3)

ALPHAF = DEFI_FONCTION(
    NOM_PARA="TEMP",
    PROL_GAUCHE="CONSTANT",
    PROL_DROITE="CONSTANT",
    VALE=(20.0, 10.0e-06, 120.0, 10.0e-06),
)

ALPHAA = DEFI_FONCTION(
    NOM_PARA="TEMP",
    PROL_GAUCHE="CONSTANT",
    PROL_DROITE="CONSTANT",
    VALE=(20.0, 10.0e-05, 120.0, 10.0e-05),
)

MELANGE = DEFI_FONCTION(
    NOM_PARA="META",
    PROL_DROITE="LINEAIRE",
    PROL_GAUCHE="LINEAIRE",
    VALE=(0.000, 0.0000, 1.000, 1.0000),
)

ACIERM = DEFI_MATERIAU(
    ELAS_META_FO=_F(
        E=YOUNG,
        NU=NU,
        F_ALPHA=ALPHAF,
        C_ALPHA=ALPHAA,
        TEMP_DEF_ALPHA=20.0,
        PHASE_REFE="FROID",
        EPSF_EPSC_TREF=1.0e-2,
        F1_SY=SIGY,
        F2_SY=SIGY,
        F3_SY=SIGY,
        F4_SY=SIGY,
        C_SY=SIGY,
        SY_MELANGE=MELANGE,
    ),
    META_TRACTION=_F(
        SIGM_F1=COU_TRAC, SIGM_F2=COU_TRAC, SIGM_F3=COU_TRAC, SIGM_F4=COU_TRAC, SIGM_C=COU_TRAC
    ),
)

CHP_MATL = AFFE_MATERIAU(
    MAILLAGE=MAIL,
    AFFE=_F(TOUT="OUI", MATER=ACIERM),
    AFFE_VARC=(
        _F(TOUT="OUI", EVOL=TEMPE, NOM_VARC="M_ACIER", NOM_CHAM="META_ELNO"),
        _F(TOUT="OUI", EVOL=TEMPE, VALE_REF=20, NOM_VARC="TEMP", NOM_CHAM="TEMP"),
    ),
)

INST_M = DEFI_LIST_REEL(
    DEBUT=0.0, INTERVALLE=(_F(JUSQU_A=1.00, NOMBRE=1), _F(JUSQU_A=2.00, NOMBRE=200))
)

F_CHAR = DEFI_FONCTION(
    NOM_PARA="INST", PROL_DROITE="CONSTANT", VALE=(0.0, 0.0, 1.0, 0.0, 2.0, 30.0)
)

CHR_LIAI = AFFE_CHAR_MECA(
    MODELE=MOMECA, DDL_IMPO=(_F(GROUP_NO="NO1", DY=0.0), _F(GROUP_NO="NO2", DY=0.0))
)

CHR_TRAC = AFFE_CHAR_MECA(MODELE=MOMECA, FACE_IMPO=_F(GROUP_MA="MA2", DY=1.0))

U = STAT_NON_LINE(
    MODELE=MOMECA,
    CHAM_MATER=CHP_MATL,
    EXCIT=_F(CHARGE=CHR_LIAI),
    COMPORTEMENT=_F(RELATION="META_P_INL", RELATION_KIT=("ACIER",), DEFORMATION="SIMO_MIEHE"),
    INCREMENT=_F(LIST_INST=INST_M, NUME_INST_FIN=1),
    NEWTON=_F(MATRICE="TANGENTE", REAC_ITER=1),
    CONVERGENCE=_F(RESI_GLOB_RELA=1.0e-6, ITER_GLOB_MAXI=50),
    RECH_LINEAIRE=_F(ITER_LINE_MAXI=3),
)

U = STAT_NON_LINE(
    reuse=U,
    ETAT_INIT=_F(EVOL_NOLI=U, NUME_ORDRE=1),
    MODELE=MOMECA,
    CHAM_MATER=CHP_MATL,
    EXCIT=(_F(CHARGE=CHR_LIAI), _F(CHARGE=CHR_TRAC, FONC_MULT=F_CHAR, TYPE_CHARGE="DIDI")),
    COMPORTEMENT=_F(RELATION="META_P_INL", RELATION_KIT=("ACIER",), DEFORMATION="SIMO_MIEHE"),
    INCREMENT=_F(LIST_INST=INST_M),
    NEWTON=_F(MATRICE="TANGENTE", REAC_ITER=1),
    CONVERGENCE=_F(RESI_GLOB_RELA=1.0e-6, ITER_GLOB_MAXI=50),
    RECH_LINEAIRE=_F(ITER_LINE_MAXI=3),
)

U = CALC_CHAMP(reuse=U, RESULTAT=U, CONTRAINTE=("SIGM_ELNO"), VARI_INTERNE=("VARI_ELNO"))


U = CALC_CHAMP(reuse=U, RESULTAT=U, CONTRAINTE="SIGM_NOEU", VARI_INTERNE="VARI_NOEU")

CHSIY11 = CREA_CHAMP(
    OPERATION="EXTR", TYPE_CHAM="NOEU_SIEF_R", RESULTAT=U, NOM_CHAM="SIGM_NOEU", INST=1.1
)

CHUY11 = CREA_CHAMP(
    OPERATION="EXTR", TYPE_CHAM="NOEU_DEPL_R", RESULTAT=U, NOM_CHAM="DEPL", INST=1.1
)

CHVAR11 = CREA_CHAMP(
    OPERATION="EXTR", TYPE_CHAM="NOEU_VAR2_R", RESULTAT=U, NOM_CHAM="VARI_NOEU", INST=1.1
)

CHSIY14 = CREA_CHAMP(
    OPERATION="EXTR", TYPE_CHAM="NOEU_SIEF_R", RESULTAT=U, NOM_CHAM="SIGM_NOEU", INST=1.4
)

CHUY14 = CREA_CHAMP(
    OPERATION="EXTR", TYPE_CHAM="NOEU_DEPL_R", RESULTAT=U, NOM_CHAM="DEPL", INST=1.4
)

CHVAR14 = CREA_CHAMP(
    OPERATION="EXTR", TYPE_CHAM="NOEU_VAR2_R", RESULTAT=U, NOM_CHAM="VARI_NOEU", INST=1.4
)

CHSIY20 = CREA_CHAMP(
    OPERATION="EXTR", TYPE_CHAM="NOEU_SIEF_R", RESULTAT=U, NOM_CHAM="SIGM_NOEU", INST=2.0
)

CHUY20 = CREA_CHAMP(
    OPERATION="EXTR", TYPE_CHAM="NOEU_DEPL_R", RESULTAT=U, NOM_CHAM="DEPL", INST=2.0
)

CHVAR20 = CREA_CHAMP(
    OPERATION="EXTR", TYPE_CHAM="NOEU_VAR2_R", RESULTAT=U, NOM_CHAM="VARI_NOEU", INST=2.0
)


TEST_RESU(
    CHAM_NO=(
        _F(GROUP_NO="NO3", NOM_CMP="SIYY", CHAM_GD=CHSIY11, VALE_CALC=120.113910175),
        _F(GROUP_NO="NO3", NOM_CMP="SIYY", CHAM_GD=CHSIY14, VALE_CALC=190.879298792),
        _F(GROUP_NO="NO3", NOM_CMP="SIYY", CHAM_GD=CHSIY20, VALE_CALC=247.146107034),
        _F(GROUP_NO="NO3", NOM_CMP="DY", CHAM_GD=CHUY11, VALE_CALC=3.99751358807),
        _F(GROUP_NO="NO3", NOM_CMP="DY", CHAM_GD=CHUY14, VALE_CALC=12.9975135881),
        _F(GROUP_NO="NO3", NOM_CMP="DY", CHAM_GD=CHUY20, VALE_CALC=30.9975135881),
        _F(GROUP_NO="NO3", NOM_CMP="V1", CHAM_GD=CHVAR11, VALE_CALC=0.00239196685483),
        _F(GROUP_NO="NO3", NOM_CMP="V1", CHAM_GD=CHVAR14, VALE_CALC=0.0109680756477),
        _F(GROUP_NO="NO3", NOM_CMP="V1", CHAM_GD=CHVAR20, VALE_CALC=0.0283169374338),
        _F(GROUP_NO="NO3", NOM_CMP="V7", CHAM_GD=CHVAR11, VALE_CALC=20.5025730414),
        _F(GROUP_NO="NO3", NOM_CMP="V7", CHAM_GD=CHVAR14, VALE_CALC=91.5239672252),
        _F(GROUP_NO="NO3", NOM_CMP="V7", CHAM_GD=CHVAR20, VALE_CALC=148.008633506),
    )
)

FIN()
