# coding=utf-8
# --------------------------------------------------------------------
# Copyright (C) 1991 - 2025 - EDF R&D - www.code-aster.org
# This file is part of code_aster.
#
# code_aster is free software: you can redistribute it and/or modify
# it under the terms of the GNU General Public License as published by
# the Free Software Foundation, either version 3 of the License, or
# (at your option) any later version.
#
# code_aster is distributed in the hope that it will be useful,
# but WITHOUT ANY WARRANTY; without even the implied warranty of
# MERCHANTABILITY or FITNESS FOR A PARTICULAR PURPOSE.  See the
# GNU General Public License for more details.
#
# You should have received a copy of the GNU General Public License
# along with code_aster.  If not, see <http://www.gnu.org/licenses/>.
# --------------------------------------------------------------------

#
# ( AVEC PLASTICITE DE TRANSFORMATION)
# CAS_TEST__: MFRON06B (ORIGINE : HSNV101B)
# BARREAU CYLINDRIQUE COUPLE EN TRACTION SIMPLE
# MODELISATION AXIS_META  (ELEMENTS AXISYMETRIQUES METALLURGIQUES)
#             13 NOEUDS  2 MAILLES QUAD8
# ======================================================================

DEBUT(
    CODE="OUI",
    ERREUR=_F(ALARME="EXCEPTION"),
    BASE=_F(FICHIER="GLOBALE", LONG_REPE=7000),
    DEBUG=_F(SDVERI="OUI"),
)

MAIL = LIRE_MAILLAGE(FORMAT="ASTER")

TRCMNDA = DEFI_TRC(
    HIST_EXP=(
        _F(
            VALE=(
                -1.106e03,
                1.100e01,
                8.563e00,
                -2.760e-02,
                1.220e-04,
                -2.955e-07,
                3.402e-10,
                -1.517e-13,
                0.000e00,
                0.000e00,
                0.000e00,
                8.360e02,
                0.000e00,
                0.000e00,
                0.000e00,
                6.001e02,
                0.000e00,
                0.000e00,
                1.000e00,
                3.450e02,
            )
        ),
        _F(
            VALE=(
                -2.206e03,
                1.100e01,
                8.563e00,
                -2.760e-02,
                1.220e-04,
                -2.955e-07,
                3.402e-10,
                -1.517e-13,
                0.000e00,
                0.000e00,
                0.000e00,
                8.360e02,
                0.000e00,
                0.000e00,
                0.000e00,
                6.001e02,
                0.000e00,
                0.000e00,
                1.000e00,
                3.450e02,
            )
        ),
    ),
    TEMP_MS=_F(SEUIL=4.500e-01, AKM=-3.125e01, BKM=1.406e01, TPLM=-3.497e03),
)

ACIER = DEFI_MATERIAU(
    THER=_F(RHO_CP=2000000.0, LAMBDA=9999.9),
    META_ACIER=_F(
        TRC=TRCMNDA,
        AR3=830.0,
        ALPHA=-0.0300,
        MS0=200.0,
        AC1=724.0,
        AC3=846.0,
        TAUX_1=0.34,
        TAUX_3=0.34,
    ),
)

CHMAT = AFFE_MATERIAU(MAILLAGE=MAIL, AFFE=_F(TOUT="OUI", MATER=ACIER))

MOTH = AFFE_MODELE(MAILLAGE=MAIL, AFFE=_F(TOUT="OUI", MODELISATION="AXIS", PHENOMENE="THERMIQUE"))

TIMPO = DEFI_FONCTION(
    NOM_PARA="INST",
    NOM_RESU="TEMP",
    VALE=(0.0, 900.0, 180.0, 0.0),
    PROL_GAUCHE="LINEAIRE",
    PROL_DROITE="LINEAIRE",
    INTERPOL="LIN",
)

CHTH = AFFE_CHAR_THER_F(MODELE=MOTH, TEMP_IMPO=_F(TOUT="OUI", TEMP=TIMPO))

LR8 = DEFI_LIST_REEL(DEBUT=0.0, INTERVALLE=_F(JUSQU_A=176.0, NOMBRE=88))

PHASINIT = CREA_CHAMP(
    OPERATION="AFFE",
    TYPE_CHAM="CART_VAR2_R",
    MAILLAGE=MAIL,
    AFFE=_F(
        TOUT="OUI",
        NOM_CMP=("V1", "V2", "V3", "V4", "V5", "V6", "V7"),
        VALE=(0.0, 0.0, 0.0, 0.0, 1.0, 0.0, 10.0),
    ),
)

DEFLIST1 = DEFI_LIST_INST(DEFI_LIST=_F(LIST_INST=LR8))

TEMPE = THER_LINEAIRE(
    MODELE=MOTH,
    CHAM_MATER=CHMAT,
    PARM_THETA=0.57,
    EXCIT=_F(CHARGE=CHTH),
    INCREMENT=_F(LIST_INST=DEFLIST1),
    ETAT_INIT=_F(VALE=900.0),
)

TEMPE = CALC_META(
    reuse=TEMPE,
    RESULTAT=TEMPE,
    ETAT_INIT=_F(META_INIT_ELNO=PHASINIT),
    COMPORTEMENT=_F(RELATION="ACIER", TOUT="OUI"),
    OPTION="META_ELNO",
)

FBM1 = DEFI_FONCTION(
    NOM_PARA="TEMP",
    PROL_DROITE="LINEAIRE",
    PROL_GAUCHE="LINEAIRE",
    VALE=(
        0.0,
        4353.14e6,
        20.0,
        4257.40e6,
        40.0,
        4161.57e6,
        60.0,
        4065.64e6,
        80.0,
        3969.62e6,
        100.0,
        3873.50e6,
        120.0,
        3777.29e6,
        140.0,
        3680.98e6,
        160.0,
        3584.58e6,
        180.0,
        3488.09e6,
# ... 72 like lines cut
    ),
)

FBM2 = DEFI_FONCTION(
    NOM_PARA="TEMP",
    PROL_DROITE="LINEAIRE",
    PROL_GAUCHE="LINEAIRE",
    VALE=(0.0, 80.0e6, 900.0, 530.0e6),
)

AUS1 = DEFI_FONCTION(
    NOM_PARA="TEMP",
    PROL_DROITE="LINEAIRE",
    PROL_GAUCHE="LINEAIRE",
    VALE=(
        0.0,
        5589.31e6,
        20.0,
        5494.77e6,
        40.0,
        5400.14e6,
        60.0,
        5305.43e6,
        80.0,
        5210.62e6,
        100.0,
        5115.71e6,
        120.0,
        5020.72e6,
        140.0,
        4925.63e6,
        160.0,
        4830.45e6,
        180.0,
        4735.17e6,
# ... 72 like lines cut
    ),
)

AUS2 = DEFI_FONCTION(
    NOM_PARA="TEMP",
    PROL_DROITE="LINEAIRE",
    PROL_GAUCHE="LINEAIRE",
    VALE=(0.0, -50.0e6, 900.0, 400.0e6),
)

ALP1 = DEFI_FONCTION(
    NOM_PARA="TEMP",
    PROL_DROITE="CONSTANT",
    PROL_GAUCHE="CONSTANT",
    VALE=(0.0, 15.0e-6, 900.0, 15.0e-6),
)

ALP2 = DEFI_FONCTION(
    NOM_PARA="TEMP",
    PROL_DROITE="CONSTANT",
    PROL_GAUCHE="CONSTANT",
    VALE=(0.0, 23.5e-6, 900.0, 23.5e-6),
)

FPRIM = DEFI_FONCTION(
    NOM_PARA="META", PROL_DROITE="LINEAIRE", PROL_GAUCHE="LINEAIRE", VALE=(0.0, 2.0, 1.0, 0.0)
)

FMEL = DEFI_FONCTION(
    NOM_PARA="META", PROL_DROITE="CONSTANT", PROL_GAUCHE="CONSTANT", VALE=(0.0, 0.0, 1.0, 1.0)
)

YOUNG = DEFI_CONSTANTE(VALE=200000.0e6)

NU = DEFI_CONSTANTE(VALE=0.3)

FK0 = DEFI_CONSTANTE(VALE=0.0)
FK1 = DEFI_CONSTANTE(VALE=0.0)
FK2 = DEFI_CONSTANTE(VALE=1.0e-10)
FK3 = DEFI_CONSTANTE(VALE=1.0e-10)

ACIER2 = DEFI_MATERIAU(
    ELAS_META_FO=_F(
        E=YOUNG,
        NU=NU,
        F_ALPHA=ALP1,
        C_ALPHA=ALP2,
        PHASE_REFE="CHAUD",
        EPSF_EPSC_TREF=2.52e-3,
        F1_SY=FBM2,
        F2_SY=FBM2,
        F3_SY=FBM2,
        F4_SY=FBM2,
        C_SY=AUS2,
        SY_MELANGE=FMEL,
        TEMP_DEF_ALPHA=900.0,
    ),
    MetaAcierEPIL_PT_FO=_F(
        YoungModulus=YOUNG,
        PoissonRatio=NU,
        SYY_0=FBM2,
        SYY_1=FBM2,
        SYY_2=FBM2,
        SYY_3=FBM2,
        SYY_4=AUS2,
        ETT_0=FBM1,
        ETT_1=FBM1,
        ETT_2=FBM1,
        ETT_3=FBM1,
        ETT_4=AUS1,
        metaF1=FMEL,
        FK_0=FK0,
        FK_1=FK1,
        FK_2=FK2,
        FK_3=FK3,
        metaFDF_0=FPRIM,
        metaFDF_1=FPRIM,
        metaFDF_2=FPRIM,
        metaFDF_3=FPRIM,
    ),
)

CM2 = AFFE_MATERIAU(
    MAILLAGE=MAIL,
    AFFE=_F(TOUT="OUI", MATER=ACIER2),
    AFFE_VARC=(
        _F(TOUT="OUI", EVOL=TEMPE, NOM_VARC="M_ACIER", NOM_CHAM="META_ELNO"),
        _F(TOUT="OUI", EVOL=TEMPE, NOM_VARC="TEMP", NOM_CHAM="TEMP", VALE_REF=900),
    ),
)

MO = AFFE_MODELE(MAILLAGE=MAIL, AFFE=_F(TOUT="OUI", PHENOMENE="MECANIQUE", MODELISATION="AXIS"))

CH_FO = AFFE_CHAR_MECA(
    MODELE=MO,
    FORCE_CONTOUR=_F(GROUP_MA="M3", FY=1.0),
    DDL_IMPO=(_F(GROUP_NO="N4", DY=0.0), _F(GROUP_NO="N2", DY=0.0), _F(GROUP_NO="N5", DY=0.0)),
)

RAMPE = DEFI_FONCTION(
    NOM_PARA="INST", PROL_GAUCHE="LINEAIRE", PROL_DROITE="CONSTANT", VALE=(0.0, 0.0, 60.0, 360.0e6)
)

L_INST = DEFI_LIST_REEL(
    DEBUT=0.0,
    INTERVALLE=(
        _F(JUSQU_A=46.0, NOMBRE=4),
        _F(JUSQU_A=48.0, NOMBRE=2),
        _F(JUSQU_A=60.0, NOMBRE=6),
        _F(JUSQU_A=112.0, NOMBRE=26),
        _F(JUSQU_A=176.0, NOMBRE=32),
    ),
)

DEFLIST2 = DEFI_LIST_INST(DEFI_LIST=_F(LIST_INST=L_INST))

U = STAT_NON_LINE(
    MODELE=MO,
    CHAM_MATER=CM2,
    EXCIT=_F(CHARGE=CH_FO, FONC_MULT=RAMPE),
    COMPORTEMENT=_F(RELATION="MetaAcierEPIL_PT", RESI_INTE=1e-12),
    INCREMENT=_F(LIST_INST=DEFLIST2, NUME_INST_FIN=70),
    NEWTON=_F(MATRICE="TANGENTE", REAC_ITER=1),
    CONVERGENCE=_F(RESI_GLOB_RELA=1.0e-6, ITER_GLOB_MAXI=40),
)
#
#   Post-traitement
#
U = CALC_CHAMP(
    reuse=U,
    CONTRAINTE=("SIGM_ELNO"),
    VARI_INTERNE=("VARI_ELNO"),
    DEFORMATION=("EPSI_ELNO", "EPVC_ELNO", "EPME_ELNO", "EPSP_ELNO"),
    RESULTAT=U,
)

CHVAR47 = CREA_CHAMP(
    OPERATION="EXTR", TYPE_CHAM="ELNO_VARI_R", RESULTAT=U, NOM_CHAM="VARI_ELNO", INST=47.0
)

CHSIG47 = CREA_CHAMP(
    OPERATION="EXTR", TYPE_CHAM="ELNO_SIEF_R", RESULTAT=U, NOM_CHAM="SIGM_ELNO", INST=47.0
)

CHEPS47 = CREA_CHAMP(
    OPERATION="EXTR", TYPE_CHAM="ELNO_EPSI_R", RESULTAT=U, NOM_CHAM="EPSI_ELNO", INST=47.0
)

CHEPT47 = CREA_CHAMP(
    OPERATION="EXTR", TYPE_CHAM="ELNO_EPSI_R", RESULTAT=U, NOM_CHAM="EPVC_ELNO", INST=47.0
)

CHEPM47 = CREA_CHAMP(
    OPERATION="EXTR", TYPE_CHAM="ELNO_EPSI_R", RESULTAT=U, NOM_CHAM="EPME_ELNO", INST=47.0
)

CHEPP47 = CREA_CHAMP(
    OPERATION="EXTR", TYPE_CHAM="ELNO_EPSI_R", RESULTAT=U, NOM_CHAM="EPSP_ELNO", INST=47.0
)

CHVAR48 = CREA_CHAMP(
    OPERATION="EXTR", TYPE_CHAM="ELNO_VARI_R", RESULTAT=U, NOM_CHAM="VARI_ELNO", INST=48.0
)

CHSIG48 = CREA_CHAMP(
    OPERATION="EXTR", TYPE_CHAM="ELNO_SIEF_R", RESULTAT=U, NOM_CHAM="SIGM_ELNO", INST=48.0
)

CHEPS48 = CREA_CHAMP(
    OPERATION="EXTR", TYPE_CHAM="ELNO_EPSI_R", RESULTAT=U, NOM_CHAM="EPSI_ELNO", INST=48.0
)

CHEPT48 = CREA_CHAMP(
    OPERATION="EXTR", TYPE_CHAM="ELNO_EPSI_R", RESULTAT=U, NOM_CHAM="EPVC_ELNO", INST=48.0
)

CHEPM48 = CREA_CHAMP(
    OPERATION="EXTR", TYPE_CHAM="ELNO_EPSI_R", RESULTAT=U, NOM_CHAM="EPME_ELNO", INST=48.0
)

CHEPP48 = CREA_CHAMP(
    OPERATION="EXTR", TYPE_CHAM="ELNO_EPSI_R", RESULTAT=U, NOM_CHAM="EPSP_ELNO", INST=48.0
)

CHVAR60 = CREA_CHAMP(
    OPERATION="EXTR", TYPE_CHAM="ELNO_VARI_R", RESULTAT=U, NOM_CHAM="VARI_ELNO", INST=60.0
)

CHVAR64 = CREA_CHAMP(
    OPERATION="EXTR", TYPE_CHAM="ELNO_VARI_R", RESULTAT=U, NOM_CHAM="VARI_ELNO", INST=64.0
)

CHSIG64 = CREA_CHAMP(
    OPERATION="EXTR", TYPE_CHAM="ELNO_SIEF_R", RESULTAT=U, NOM_CHAM="SIGM_ELNO", INST=64.0
)

CHEPS64 = CREA_CHAMP(
    OPERATION="EXTR", TYPE_CHAM="ELNO_EPSI_R", RESULTAT=U, NOM_CHAM="EPSI_ELNO", INST=64.0
)

CHEPT64 = CREA_CHAMP(
    OPERATION="EXTR", TYPE_CHAM="ELNO_EPSI_R", RESULTAT=U, NOM_CHAM="EPVC_ELNO", INST=64.0
)

CHEPM64 = CREA_CHAMP(
    OPERATION="EXTR", TYPE_CHAM="ELNO_EPSI_R", RESULTAT=U, NOM_CHAM="EPME_ELNO", INST=64.0
)

CHEPP64 = CREA_CHAMP(
    OPERATION="EXTR", TYPE_CHAM="ELNO_EPSI_R", RESULTAT=U, NOM_CHAM="EPSP_ELNO", INST=64.0
)

CHVA114 = CREA_CHAMP(
    OPERATION="EXTR", TYPE_CHAM="ELNO_VARI_R", RESULTAT=U, NOM_CHAM="VARI_ELNO", INST=114.0
)

CHSI114 = CREA_CHAMP(
    OPERATION="EXTR", TYPE_CHAM="ELNO_SIEF_R", RESULTAT=U, NOM_CHAM="SIGM_ELNO", INST=114.0
)

CHEP114 = CREA_CHAMP(
    OPERATION="EXTR", TYPE_CHAM="ELNO_EPSI_R", RESULTAT=U, NOM_CHAM="EPSI_ELNO", INST=114.0
)

CHEPT114 = CREA_CHAMP(
    OPERATION="EXTR", TYPE_CHAM="ELNO_EPSI_R", RESULTAT=U, NOM_CHAM="EPVC_ELNO", INST=114.0
)

CHEPM114 = CREA_CHAMP(
    OPERATION="EXTR", TYPE_CHAM="ELNO_EPSI_R", RESULTAT=U, NOM_CHAM="EPME_ELNO", INST=114.0
)

CHEPP114 = CREA_CHAMP(
    OPERATION="EXTR", TYPE_CHAM="ELNO_EPSI_R", RESULTAT=U, NOM_CHAM="EPSP_ELNO", INST=114.0
)

CHVA176 = CREA_CHAMP(
    OPERATION="EXTR", TYPE_CHAM="ELNO_VARI_R", RESULTAT=U, NOM_CHAM="VARI_ELNO", INST=176.0
)

#
#   Comparaison Mfront-Solution analytique
#
TEST_RESU(
    CHAM_ELEM=(
        _F(
            GROUP_NO="N13",
            CRITERE="ABSOLU",
            NOM_CMP="V10",
            GROUP_MA="M1",
            CHAM_GD=CHVAR47,
            VALE_CALC=0.0,
            VALE_REFE=0.0,
            REFERENCE="ANALYTIQUE",
            ORDRE_GRANDEUR=1.0e-6,
        ),
        _F(
            GROUP_NO="N13",
            CRITERE="ABSOLU",
            NOM_CMP="V11",
            GROUP_MA="M1",
            CHAM_GD=CHVAR47,
            VALE_CALC=0.0,
            VALE_REFE=0.0,
            REFERENCE="ANALYTIQUE",
            ORDRE_GRANDEUR=1.0e-6,
        ),
        _F(
            GROUP_NO="N13",
            CRITERE="RELATIF",
            NOM_CMP="SIYY",
            GROUP_MA="M1",
            CHAM_GD=CHSIG47,
            VALE_CALC=281999868.976,
            VALE_REFE=2.82000000e8,
            REFERENCE="ANALYTIQUE",
        ),
        _F(
            GROUP_NO="N13",
            CRITERE="RELATIF",
            NOM_CMP="EPYY",
            GROUP_MA="M1",
            CHAM_GD=CHEPS47,
            VALE_CALC=-0.00411250038328,
            VALE_REFE=-4.1124999999999998e-3,
            REFERENCE="ANALYTIQUE",
        ),
        _F(
            GROUP_NO="N13",
            CRITERE="RELATIF",
            NOM_CMP="EPTHER_L",
            GROUP_MA="M1",
            CHAM_GD=CHEPT47,
            VALE_CALC=-0.0055225,
            VALE_REFE=-0.0055225,
            REFERENCE="ANALYTIQUE",
        ),
        _F(
            GROUP_NO="N13",
            CRITERE="RELATIF",
            NOM_CMP="EPYY",
            GROUP_MA="M1",
            CHAM_GD=CHEPM47,
            VALE_CALC=0.00140999961672,
            VALE_REFE=0.00141,
            REFERENCE="ANALYTIQUE",
        ),
        _F(
            GROUP_NO="N13",
            CRITERE="ABSOLU",
            NOM_CMP="EPYY",
            GROUP_MA="M1",
            CHAM_GD=CHEPP47,
            VALE_CALC=1.96889013693e-12,
            VALE_REFE=0.0,
            REFERENCE="ANALYTIQUE",
            # ORDRE_GRANDEUR = 1.E-5,
        ),
        _F(
            GROUP_NO="N13",
            CRITERE="RELATIF",
            NOM_CMP="V10",
            GROUP_MA="M1",
            CHAM_GD=CHVAR48,
            VALE_CALC=0.00326535601573,
            VALE_REFE=3.2650000000000001e-3,
            REFERENCE="ANALYTIQUE",
            PRECISION=1.1000000000000001e-3,
        ),
        _F(
            GROUP_NO="N13",
            CRITERE="RELATIF",
            NOM_CMP="V11",
            GROUP_MA="M1",
            CHAM_GD=CHVAR48,
            VALE_CALC=1.0,
            VALE_REFE=1.0,
            REFERENCE="ANALYTIQUE",
        ),
        _F(
            GROUP_NO="N13",
            CRITERE="RELATIF",
            NOM_CMP="SIYY",
            GROUP_MA="M1",
            CHAM_GD=CHSIG48,
            VALE_CALC=287999954.729,
            VALE_REFE=2.88000000e8,
            REFERENCE="ANALYTIQUE",
        ),
        _F(
            GROUP_NO="N13",
            CRITERE="RELATIF",
            NOM_CMP="EPYY",
            GROUP_MA="M1",
            CHAM_GD=CHEPS48,
            VALE_CALC=-0.000934645225074,
            VALE_REFE=-9.3468999999999996e-4,
            REFERENCE="ANALYTIQUE",
        ),
        _F(
            GROUP_NO="N13",
            CRITERE="RELATIF",
            NOM_CMP="EPTHER_L",
            GROUP_MA="M1",
            CHAM_GD=CHEPT48,
            VALE_CALC=-0.00564,
            VALE_REFE=-0.00564,
            REFERENCE="ANALYTIQUE",
        ),
        _F(
            GROUP_NO="N13",
            CRITERE="RELATIF",
            NOM_CMP="EPYY",
            GROUP_MA="M1",
            CHAM_GD=CHEPM48,
            VALE_CALC=0.00470535628681,
            VALE_REFE=0.004705,
            REFERENCE="ANALYTIQUE",
        ),
        _F(
            GROUP_NO="N13",
            CRITERE="RELATIF",
            NOM_CMP="EPYY",
            GROUP_MA="M1",
            CHAM_GD=CHEPP48,
            VALE_CALC=0.0032653560177,
            VALE_REFE=0.0032653,
            REFERENCE="ANALYTIQUE",
        ),
        _F(
            GROUP_NO="N13",
            CRITERE="RELATIF",
            NOM_CMP="V10",
            GROUP_MA="M1",
            CHAM_GD=CHVAR60,
            VALE_CALC=0.0400000330319,
            VALE_REFE=0.040000000000000001,
            REFERENCE="ANALYTIQUE",
        ),
        _F(
            GROUP_NO="N13",
            CRITERE="RELATIF",
            NOM_CMP="V10",
            GROUP_MA="M1",
            CHAM_GD=CHVAR64,
            VALE_CALC=0.0400000330319,
            VALE_REFE=0.040000000000000001,
            REFERENCE="ANALYTIQUE",
        ),
        _F(
            GROUP_NO="N13",
            CRITERE="ABSOLU",
            NOM_CMP="V11",
            GROUP_MA="M1",
            CHAM_GD=CHVAR64,
            VALE_REFE=0.0,
            VALE_CALC=0.0,
            REFERENCE="ANALYTIQUE",
            ORDRE_GRANDEUR=1.0e-6,
        ),
        _F(
            GROUP_NO="N13",
            CRITERE="RELATIF",
            NOM_CMP="SIYY",
            GROUP_MA="M1",
            CHAM_GD=CHSIG64,
            VALE_CALC=359999829.218,
            VALE_REFE=3.60000000e8,
            REFERENCE="ANALYTIQUE",
        ),
        _F(
            GROUP_NO="N13",
            CRITERE="RELATIF",
            NOM_CMP="EPYY",
            GROUP_MA="M1",
            CHAM_GD=CHEPS64,
            VALE_CALC=0.040003777168,
            VALE_REFE=0.040008500000000002,
            REFERENCE="ANALYTIQUE",
        ),
        _F(
            GROUP_NO="N13",
            CRITERE="RELATIF",
            NOM_CMP="EPTHER_L",
            GROUP_MA="M1",
            CHAM_GD=CHEPT64,
            VALE_CALC=-0.00710918071345,
            VALE_REFE=-0.007117,
            REFERENCE="ANALYTIQUE",
            PRECISION=2.0e-3,
        ),
        _F(
            GROUP_NO="N13",
            CRITERE="RELATIF",
            NOM_CMP="EPYY",
            GROUP_MA="M1",
            CHAM_GD=CHEPM64,
            VALE_CALC=0.0471129578815,
            VALE_REFE=0.047125,
            REFERENCE="ANALYTIQUE",
        ),
        _F(
            GROUP_NO="N13",
            CRITERE="RELATIF",
            NOM_CMP="EPYY",
            GROUP_MA="M1",
            CHAM_GD=CHEPP64,
            VALE_CALC=0.0453129582726,
            VALE_REFE=0.04533,
            REFERENCE="ANALYTIQUE",
        ),
        _F(
            GROUP_NO="N13",
            CRITERE="RELATIF",
            NOM_CMP="V8",
            GROUP_MA="M1",
            CHAM_GD=CHVA114,
            VALE_CALC=0.0410716225247,
            VALE_REFE=0.041070000000000002,
            REFERENCE="ANALYTIQUE",
        ),
        _F(
            GROUP_NO="N13",
            CRITERE="RELATIF",
            NOM_CMP="V11",
            GROUP_MA="M1",
            CHAM_GD=CHVA114,
            VALE_CALC=1.0,
            VALE_REFE=1.0,
            REFERENCE="ANALYTIQUE",
            PRECISION=1.0e-3,
        ),
        _F(
            GROUP_NO="N13",
            CRITERE="RELATIF",
            NOM_CMP="SIYY",
            GROUP_MA="M1",
            CHAM_GD=CHSI114,
            VALE_CALC=359999802.016,
            VALE_REFE=3.60000000e8,
            REFERENCE="ANALYTIQUE",
        ),
        _F(
            GROUP_NO="N13",
            CRITERE="RELATIF",
            NOM_CMP="EPYY",
            PRECISION=0.02,
            GROUP_MA="M1",
            CHAM_GD=CHEP114,
            VALE_CALC=0.0714442331108,
            VALE_REFE=0.072840000000000002,
            REFERENCE="ANALYTIQUE",
        ),
        _F(
            GROUP_NO="N13",
            CRITERE="RELATIF",
            NOM_CMP="EPTHER_L",
            GROUP_MA="M1",
            CHAM_GD=CHEPT114,
            VALE_CALC=-0.00603,
            VALE_REFE=-0.00603,
            REFERENCE="ANALYTIQUE",
        ),
        _F(
            GROUP_NO="N13",
            CRITERE="RELATIF",
            NOM_CMP="EPYY",
            GROUP_MA="M1",
            CHAM_GD=CHEPM114,
            VALE_CALC=0.0774742331108,
            VALE_REFE=0.07887,
            REFERENCE="ANALYTIQUE",
            PRECISION=2.0e-2,
        ),
        _F(
            GROUP_NO="N13",
            CRITERE="RELATIF",
            NOM_CMP="EPYY",
            GROUP_MA="M1",
            CHAM_GD=CHEPP114,
            VALE_CALC=0.0756742332994,
            VALE_REFE=0.07707,
            REFERENCE="ANALYTIQUE",
            PRECISION=2.0e-2,
        ),
        _F(
            GROUP_NO="N13",
            CRITERE="RELATIF",
            NOM_CMP="V8",
            GROUP_MA="M1",
            CHAM_GD=CHVA176,
            VALE_CALC=0.062068979102,
            VALE_REFE=0.062068999999999999,
            REFERENCE="ANALYTIQUE",
        ),
    )
)
#
#   Comparaison Aster-Mfront
#
TEST_RESU(
    CHAM_ELEM=(
        _F(
            GROUP_NO="N13",
            CRITERE="ABSOLU",
            NOM_CMP="V10",
            GROUP_MA="M1",
            CHAM_GD=CHVAR47,
            VALE_CALC=0.0,
            VALE_REFE=0.0,
            REFERENCE="AUTRE_ASTER",
            ORDRE_GRANDEUR=1e-6,
        ),
        _F(
            GROUP_NO="N13",
            CRITERE="ABSOLU",
            NOM_CMP="V11",
            GROUP_MA="M1",
            CHAM_GD=CHVAR47,
            VALE_CALC=0.0,
            VALE_REFE=0.0,
            REFERENCE="AUTRE_ASTER",
            ORDRE_GRANDEUR=1e-6,
        ),
        _F(
            GROUP_NO="N13",
            CRITERE="RELATIF",
            NOM_CMP="SIYY",
            GROUP_MA="M1",
            CHAM_GD=CHSIG47,
            VALE_CALC=281999868.976,
            VALE_REFE=2.8199986897636e8,
            REFERENCE="AUTRE_ASTER",
        ),
        _F(
            GROUP_NO="N13",
            CRITERE="RELATIF",
            NOM_CMP="EPYY",
            GROUP_MA="M1",
            CHAM_GD=CHEPS47,
            VALE_CALC=-0.00411250038328,
            VALE_REFE=-4.1125003852496e-3,
            REFERENCE="AUTRE_ASTER",
        ),
        _F(
            GROUP_NO="N13",
            CRITERE="RELATIF",
            NOM_CMP="V10",
            GROUP_MA="M1",
            CHAM_GD=CHVAR48,
            VALE_CALC=0.00326535601573,
            VALE_REFE=3.265354930413e-3,
            REFERENCE="AUTRE_ASTER",
        ),
        _F(
            GROUP_NO="N13",
            CRITERE="RELATIF",
            NOM_CMP="V11",
            GROUP_MA="M1",
            CHAM_GD=CHVAR48,
            VALE_CALC=1.0,
            VALE_REFE=1.0,
            REFERENCE="AUTRE_ASTER",
        ),
        _F(
            GROUP_NO="N13",
            CRITERE="RELATIF",
            NOM_CMP="SIYY",
            GROUP_MA="M1",
            CHAM_GD=CHSIG48,
            VALE_CALC=287999954.729,
            VALE_REFE=2.8799993609587e8,
            REFERENCE="AUTRE_ASTER",
        ),
        _F(
            GROUP_NO="N13",
            CRITERE="RELATIF",
            NOM_CMP="EPYY",
            GROUP_MA="M1",
            CHAM_GD=CHEPS48,
            VALE_CALC=-0.000934645225074,
            VALE_REFE=-9.3464484572183e-4,
            REFERENCE="AUTRE_ASTER",
        ),
        _F(
            GROUP_NO="N13",
            CRITERE="RELATIF",
            NOM_CMP="V10",
            GROUP_MA="M1",
            CHAM_GD=CHVAR60,
            VALE_CALC=0.0400000330319,
            VALE_REFE=0.040000033462824,
            REFERENCE="AUTRE_ASTER",
        ),
        _F(
            GROUP_NO="N13",
            CRITERE="RELATIF",
            NOM_CMP="V10",
            GROUP_MA="M1",
            CHAM_GD=CHVAR64,
            VALE_CALC=0.0400000330319,
            VALE_REFE=0.040000033462824,
            REFERENCE="AUTRE_ASTER",
        ),
        _F(
            GROUP_NO="N13",
            CRITERE="ABSOLU",
            NOM_CMP="V11",
            GROUP_MA="M1",
            CHAM_GD=CHVAR64,
            VALE_REFE=0.0,
            VALE_CALC=0.0,
            REFERENCE="AUTRE_ASTER",
            ORDRE_GRANDEUR=1e-6,
        ),
        _F(
            GROUP_NO="N13",
            CRITERE="RELATIF",
            NOM_CMP="SIYY",
            GROUP_MA="M1",
            CHAM_GD=CHSIG64,
            VALE_CALC=359999829.218,
            VALE_REFE=3.5999979662253e8,
            REFERENCE="AUTRE_ASTER",
        ),
        _F(
            GROUP_NO="N13",
            CRITERE="RELATIF",
            NOM_CMP="EPYY",
            GROUP_MA="M1",
            CHAM_GD=CHEPS64,
            VALE_CALC=0.040003777168,
            VALE_REFE=0.040003778049952,
            REFERENCE="AUTRE_ASTER",
        ),
        _F(
            GROUP_NO="N13",
            CRITERE="RELATIF",
            NOM_CMP="V8",
            GROUP_MA="M1",
            CHAM_GD=CHVA114,
            VALE_CALC=0.0410716225247,
            VALE_REFE=0.041071623444537,
            REFERENCE="AUTRE_ASTER",
        ),
        _F(
            GROUP_NO="N13",
            CRITERE="RELATIF",
            NOM_CMP="V11",
            GROUP_MA="M1",
            CHAM_GD=CHVA114,
            VALE_CALC=1.0,
            VALE_REFE=1.0,
            REFERENCE="AUTRE_ASTER",
        ),
        _F(
            GROUP_NO="N13",
            CRITERE="RELATIF",
            NOM_CMP="SIYY",
            GROUP_MA="M1",
            CHAM_GD=CHSI114,
            VALE_CALC=359999802.016,
            VALE_REFE=3.60000000e8,
            REFERENCE="AUTRE_ASTER",
        ),
        _F(
            GROUP_NO="N13",
            CRITERE="RELATIF",
            NOM_CMP="EPYY",
            GROUP_MA="M1",
            CHAM_GD=CHEP114,
            VALE_CALC=0.0714442331108,
            VALE_REFE=0.071444235,
            REFERENCE="AUTRE_ASTER",
        ),
        _F(
            GROUP_NO="N13",
            CRITERE="RELATIF",
            NOM_CMP="V8",
            GROUP_MA="M1",
            CHAM_GD=CHVA176,
            VALE_CALC=0.062068979102,
            VALE_REFE=0.062068877,
            REFERENCE="AUTRE_ASTER",
        ),
    )
)
FIN()
#
