# coding=utf-8
# --------------------------------------------------------------------
# Copyright (C) 1991 - 2025 - EDF R&D - www.code-aster.org
# This file is part of code_aster.
#
# code_aster is free software: you can redistribute it and/or modify
# it under the terms of the GNU General Public License as published by
# the Free Software Foundation, either version 3 of the License, or
# (at your option) any later version.
#
# code_aster is distributed in the hope that it will be useful,
# but WITHOUT ANY WARRANTY; without even the implied warranty of
# MERCHANTABILITY or FITNESS FOR A PARTICULAR PURPOSE.  See the
# GNU General Public License for more details.
#
# You should have received a copy of the GNU General Public License
# along with code_aster.  If not, see <http://www.gnu.org/licenses/>.
# --------------------------------------------------------------------

DEBUT(CODE="OUI", DEBUG=_F(SDVERI="OUI"))

# DEFINITION DES CARACTERISTIQUES DU MATERIAU

TRCMNDA = DEFI_TRC(
    HIST_EXP=(
        _F(
            VALE=(
                -1.000e-01,
                1.000e01,
                0.000e00,
                0.000e00,
                0.000e00,
                0.000e00,
                0.000e00,
                0.000e00,
                0.000e00,
                0.000e00,
                0.000e00,
                8.300e02,
                0.000e00,
                0.000e00,
                0.000e00,
                7.591e02,
                1.000e-02,
                0.000e00,
                0.000e00,
                7.550e02,
# ... 24 like lines cut
            )
        ),
        _F(
            VALE=(
                -1.000e00,
                1.000e01,
                0.000e00,
                0.000e00,
                0.000e00,
                0.000e00,
                0.000e00,
                0.000e00,
                0.000e00,
                0.000e00,
                0.000e00,
                8.300e02,
                0.000e00,
                0.000e00,
                0.000e00,
                7.586e02,
                1.000e-02,
                0.000e00,
                0.000e00,
                7.500e02,
# ... 24 like lines cut
            )
        ),
        _F(
            VALE=(
                -1.000e01,
                1.000e01,
                0.000e00,
                0.000e00,
                0.000e00,
                0.000e00,
                0.000e00,
                0.000e00,
                0.000e00,
                0.000e00,
                0.000e00,
                8.300e02,
                0.000e00,
                0.000e00,
                0.000e00,
                5.994e02,
                0.000e00,
                0.000e00,
                1.000e-02,
                5.950e02,
# ... 8 like lines cut
            )
        ),
        _F(
            VALE=(
                -6.000e01,
                1.000e01,
                0.000e00,
                0.000e00,
                0.000e00,
                0.000e00,
                0.000e00,
                0.000e00,
                0.000e00,
                0.000e00,
                0.000e00,
                8.300e02,
                0.000e00,
                0.000e00,
                0.000e00,
                5.094e02,
                0.000e00,
                0.000e00,
                1.000e-02,
                5.000e02,
# ... 8 like lines cut
            )
        ),
    ),
    TEMP_MS=_F(SEUIL=4.500e-01, AKM=-3.125e01, BKM=1.406e01, TPLM=-3.497e00),
    GRAIN_AUST=_F(DREF=11.00e-6, A=11200.0),
)

ACIER = DEFI_MATERIAU(
    THER=_F(RHO_CP=5260000.0, LAMBDA=33.5),
    META_ACIER=_F(
        TRC=TRCMNDA,
        AR3=830.0,
        ALPHA=-0.0306,
        MS0=400.0,
        AC1=724.0,
        AC3=846.0,
        TAUX_1=0.034,
        TAUX_3=0.034,
        LAMBDA0=0.117,
        QSR_K=37500.0,
        D10=3.31,
        WSR_K=12860.0,
    ),
)

MAIL = LIRE_MAILLAGE(FORMAT="MED")

CHMAT = AFFE_MATERIAU(MAILLAGE=MAIL, AFFE=_F(TOUT="OUI", MATER=ACIER))

MOTH = AFFE_MODELE(MAILLAGE=MAIL, AFFE=_F(TOUT="OUI", MODELISATION="PLAN", PHENOMENE="THERMIQUE"))

TIMPO1 = DEFI_FONCTION(
    NOM_RESU="TEMP",
    NOM_PARA="INST",
    VALE=(0.0, 700.0, 200.0, 900.0, 1100.0, 900.0, 1900.0, 100.0),
    PROL_DROITE="LINEAIRE",
    PROL_GAUCHE="LINEAIRE",
)

TIMPO = CREA_CHAMP(
    OPERATION="AFFE",
    TYPE_CHAM="NOEU_TEMP_F",
    MAILLAGE=MAIL,
    AFFE=_F(TOUT="OUI", NOM_CMP="TEMP", VALE_F=TIMPO1),
)


LIST = DEFI_LIST_REEL(DEBUT=0.0, INTERVALLE=_F(JUSQU_A=1900.0, NOMBRE=950))

TEMPE = CREA_RESU(
    OPERATION="AFFE", TYPE_RESU="EVOL_THER", AFFE=_F(NOM_CHAM="TEMP", CHAM_GD=TIMPO, LIST_INST=LIST)
)


PHASINIT = CREA_CHAMP(
    AFFE=_F(
        VALE=(0.7, 0.0, 0.3, 0.0, 0.0, 0.0, 0.0),
        NOM_CMP=("V1", "V2", "V3", "V4", "V5", "V6", "V7"),
        TOUT="OUI",
    ),
    TYPE_CHAM="CART_VAR2_R",
    MAILLAGE=MAIL,
    OPERATION="AFFE",
)


TEMPE = CALC_META(
    reuse=TEMPE,
    MODELE=MOTH,
    CHAM_MATER=CHMAT,
    RESULTAT=TEMPE,
    ETAT_INIT=_F(META_INIT_ELNO=PHASINIT),
    COMPORTEMENT=_F(RELATION="ACIER", TOUT="OUI"),
    OPTION="META_ELNO",
)


PHAS_0 = CREA_CHAMP(
    OPERATION="EXTR", TYPE_CHAM="ELNO_VARI_R", RESULTAT=TEMPE, NOM_CHAM="META_ELNO", INST=200.0
)

PHAS_1 = CREA_CHAMP(
    OPERATION="EXTR", TYPE_CHAM="ELNO_VARI_R", RESULTAT=TEMPE, NOM_CHAM="META_ELNO", INST=620.0
)

PHAS_2 = CREA_CHAMP(
    OPERATION="EXTR", TYPE_CHAM="ELNO_VARI_R", RESULTAT=TEMPE, NOM_CHAM="META_ELNO", INST=1354.0
)

PHAS_3 = CREA_CHAMP(
    OPERATION="EXTR", TYPE_CHAM="ELNO_VARI_R", RESULTAT=TEMPE, NOM_CHAM="META_ELNO", INST=1900.0
)

TEST_RESU(
    CHAM_ELEM=(
        _F(
            GROUP_NO="N66",
            CRITERE="RELATIF",
            REFERENCE="NON_DEFINI",
            NOM_CMP="V7",
            PRECISION=1.0e-2,
            GROUP_MA="M19",
            CHAM_GD=PHAS_0,
            VALE_CALC=2.56478413e-06,
            VALE_REFE=2.565e-06,
        ),
        _F(
            GROUP_NO="N70",
            CRITERE="RELATIF",
            REFERENCE="NON_DEFINI",
            NOM_CMP="V7",
            PRECISION=1.0e-2,
            GROUP_MA="M19",
            CHAM_GD=PHAS_1,
            VALE_CALC=9.43704313e-06,
            VALE_REFE=9.4299999999999995e-06,
        ),
        _F(
            GROUP_NO="N39",
            CRITERE="RELATIF",
            REFERENCE="NON_DEFINI",
            NOM_CMP="V7",
            PRECISION=1.0e-2,
            GROUP_MA="M13",
            CHAM_GD=PHAS_2,
            VALE_CALC=1.34149716e-05,
            VALE_REFE=1.34e-05,
        ),
        _F(
            GROUP_NO="N39",
            CRITERE="ABSOLU",
            REFERENCE="NON_DEFINI",
            NOM_CMP="V4",
            PRECISION=2.0e-3,
            GROUP_MA="M13",
            CHAM_GD=PHAS_3,
            VALE_CALC=0.00000000e00,
            VALE_REFE=0.0,
        ),
        _F(
            GROUP_NO="N66",
            CRITERE="RELATIF",
            REFERENCE="NON_DEFINI",
            NOM_CMP="V3",
            PRECISION=1.0e-2,
            GROUP_MA="M19",
            CHAM_GD=PHAS_3,
            VALE_CALC=0.449704552,
            VALE_REFE=0.45000000000000001,
        ),
        _F(
            GROUP_NO="N70",
            CRITERE="RELATIF",
            REFERENCE="NON_DEFINI",
            NOM_CMP="V1",
            PRECISION=1.0e-2,
            GROUP_MA="M19",
            CHAM_GD=PHAS_3,
            VALE_CALC=0.406193352,
            VALE_REFE=0.40300000000000002,
        ),
    )
)

FIN()
#
#
#
