# coding=utf-8
# --------------------------------------------------------------------
# Copyright (C) 1991 - 2025 - EDF R&D - www.code-aster.org
# This file is part of code_aster.
#
# code_aster is free software: you can redistribute it and/or modify
# it under the terms of the GNU General Public License as published by
# the Free Software Foundation, either version 3 of the License, or
# (at your option) any later version.
#
# code_aster is distributed in the hope that it will be useful,
# but WITHOUT ANY WARRANTY; without even the implied warranty of
# MERCHANTABILITY or FITNESS FOR A PARTICULAR PURPOSE.  See the
# GNU General Public License for more details.
#
# You should have received a copy of the GNU General Public License
# along with code_aster.  If not, see <http://www.gnu.org/licenses/>.
# --------------------------------------------------------------------

DEBUT(CODE="OUI", BASE=_F(FICHIER="GLOBALE", LONG_REPE=7000), DEBUG=_F(SDVERI="OUI"))

# DEFINITION DES CARACTERISTIQUES DU MATERIAU

TRCMNDA = DEFI_TRC(
    HIST_EXP=(
        _F(
            VALE=(
                -3.497e-03,
                1.100e01,
                8.563e00,
                -2.760e-02,
                1.220e-04,
                -2.955e-07,
                3.402e-10,
                -1.517e-13,
                0.000e00,
                0.000e00,
                0.000e00,
                8.360e02,
                0.000e00,
                0.000e00,
                0.000e00,
                8.005e02,
                1.000e-02,
                0.000e00,
                0.000e00,
                7.970e02,
# ... 20 like lines cut
            )
        ),
        _F(
            VALE=(
                -4.403e-03,
                1.100e01,
                8.563e00,
                -2.760e-02,
                1.220e-04,
                -2.955e-07,
                3.402e-10,
                -1.517e-13,
                0.000e00,
                0.000e00,
                0.000e00,
                8.360e02,
                0.000e00,
                0.000e00,
                0.000e00,
                7.981e02,
                1.000e-02,
                0.000e00,
                0.000e00,
                7.945e02,
# ... 36 like lines cut
            )
        ),
        _F(
            VALE=(
                -5.542e-03,
                1.100e01,
                8.563e00,
                -2.760e-02,
                1.220e-04,
                -2.955e-07,
                3.402e-10,
                -1.517e-13,
                0.000e00,
                0.000e00,
                0.000e00,
                8.360e02,
                0.000e00,
                0.000e00,
                0.000e00,
                7.956e02,
                1.000e-02,
                0.000e00,
                0.000e00,
                7.920e02,
# ... 36 like lines cut
            )
        ),
        _F(
            VALE=(
                -6.977e-03,
                1.100e01,
                8.563e00,
                -2.760e-02,
                1.220e-04,
                -2.955e-07,
                3.402e-10,
                -1.517e-13,
                0.000e00,
                0.000e00,
                0.000e00,
                8.360e02,
                0.000e00,
                0.000e00,
                0.000e00,
                7.927e02,
                1.000e-02,
                0.000e00,
                0.000e00,
                7.890e02,
# ... 36 like lines cut
            )
        ),
        _F(
            VALE=(
                -8.784e-03,
                1.100e01,
                8.563e00,
                -2.760e-02,
                1.220e-04,
                -2.955e-07,
                3.402e-10,
                -1.517e-13,
                0.000e00,
                0.000e00,
                0.000e00,
                8.360e02,
                0.000e00,
                0.000e00,
                0.000e00,
                7.897e02,
                1.000e-02,
                0.000e00,
                0.000e00,
                7.860e02,
# ... 36 like lines cut
            )
        ),
        _F(
            VALE=(
                -1.106e-02,
                1.100e01,
                8.563e00,
                -2.760e-02,
                1.220e-04,
                -2.955e-07,
                3.402e-10,
                -1.517e-13,
                0.000e00,
                0.000e00,
                0.000e00,
                8.360e02,
                0.000e00,
                0.000e00,
                0.000e00,
                7.873e02,
                1.000e-02,
                0.000e00,
                0.000e00,
                7.835e02,
# ... 36 like lines cut
            )
        ),
        _F(
            VALE=(
                -1.392e-02,
                1.100e01,
                8.563e00,
                -2.760e-02,
                1.220e-04,
                -2.955e-07,
                3.402e-10,
                -1.517e-13,
                0.000e00,
                0.000e00,
                0.000e00,
                8.360e02,
                0.000e00,
                0.000e00,
                0.000e00,
                7.849e02,
                1.000e-02,
                0.000e00,
                0.000e00,
                7.810e02,
# ... 36 like lines cut
            )
        ),
        _F(
            VALE=(
                -1.753e-02,
                1.100e01,
                8.563e00,
                -2.760e-02,
                1.220e-04,
                -2.955e-07,
                3.402e-10,
                -1.517e-13,
                0.000e00,
                0.000e00,
                0.000e00,
                8.360e02,
                0.000e00,
                0.000e00,
                0.000e00,
                7.819e02,
                1.000e-02,
                0.000e00,
                0.000e00,
                7.780e02,
# ... 36 like lines cut
            )
        ),
        _F(
            VALE=(
                -2.206e-02,
                1.100e01,
                8.563e00,
                -2.760e-02,
                1.220e-04,
                -2.955e-07,
                3.402e-10,
                -1.517e-13,
                0.000e00,
                0.000e00,
                0.000e00,
                8.360e02,
                0.000e00,
                0.000e00,
                0.000e00,
                7.790e02,
                1.000e-02,
                0.000e00,
                0.000e00,
                7.750e02,
# ... 36 like lines cut
            )
        ),
        _F(
            VALE=(
                -2.777e-02,
                1.100e01,
                8.563e00,
                -2.760e-02,
                1.220e-04,
                -2.955e-07,
                3.402e-10,
                -1.517e-13,
                0.000e00,
                0.000e00,
                0.000e00,
                8.360e02,
                0.000e00,
                0.000e00,
                0.000e00,
                7.766e02,
                1.000e-02,
                0.000e00,
                0.000e00,
                7.725e02,
# ... 36 like lines cut
            )
        ),
        _F(
            VALE=(
                -3.497e-02,
                1.100e01,
                8.563e00,
                -2.760e-02,
                1.220e-04,
                -2.955e-07,
                3.402e-10,
                -1.517e-13,
                0.000e00,
                0.000e00,
                0.000e00,
                8.360e02,
                0.000e00,
                0.000e00,
                0.000e00,
                7.742e02,
                1.000e-02,
                0.000e00,
                0.000e00,
                7.700e02,
# ... 36 like lines cut
            )
        ),
        _F(
            VALE=(
                -4.402e-02,
                1.100e01,
                8.563e00,
                -2.760e-02,
                1.220e-04,
                -2.955e-07,
                3.402e-10,
                -1.517e-13,
                0.000e00,
                0.000e00,
                0.000e00,
                8.360e02,
                0.000e00,
                0.000e00,
                0.000e00,
                7.714e02,
                1.000e-02,
                0.000e00,
                0.000e00,
                7.670e02,
# ... 36 like lines cut
            )
        ),
        _F(
            VALE=(
                -5.542e-02,
                1.100e01,
                8.563e00,
                -2.760e-02,
                1.220e-04,
                -2.955e-07,
                3.402e-10,
                -1.517e-13,
                0.000e00,
                0.000e00,
                0.000e00,
                8.360e02,
                0.000e00,
                0.000e00,
                0.000e00,
                7.685e02,
                1.000e-02,
                0.000e00,
                0.000e00,
                7.640e02,
# ... 36 like lines cut
            )
        ),
        _F(
            VALE=(
                -6.977e-02,
                1.100e01,
                8.563e00,
                -2.760e-02,
                1.220e-04,
                -2.955e-07,
                3.402e-10,
                -1.517e-13,
                0.000e00,
                0.000e00,
                0.000e00,
                8.360e02,
                0.000e00,
                0.000e00,
                0.000e00,
                7.662e02,
                1.000e-02,
                0.000e00,
                0.000e00,
                7.615e02,
# ... 36 like lines cut
            )
        ),
        _F(
            VALE=(
                -8.784e-02,
                1.100e01,
                8.563e00,
                -2.760e-02,
                1.220e-04,
                -2.955e-07,
                3.402e-10,
                -1.517e-13,
                0.000e00,
                0.000e00,
                0.000e00,
                8.360e02,
                0.000e00,
                0.000e00,
                0.000e00,
                7.639e02,
                1.000e-02,
                0.000e00,
                0.000e00,
                7.590e02,
# ... 36 like lines cut
            )
        ),
        _F(
            VALE=(
                -1.106e-01,
                1.100e01,
                8.563e00,
                -2.760e-02,
                1.220e-04,
                -2.955e-07,
                3.402e-10,
                -1.517e-13,
                0.000e00,
                0.000e00,
                0.000e00,
                8.360e02,
                0.000e00,
                0.000e00,
                0.000e00,
                7.611e02,
                1.000e-02,
                0.000e00,
                0.000e00,
                7.560e02,
# ... 36 like lines cut
            )
        ),
        _F(
            VALE=(
                -1.392e-01,
                1.100e01,
                8.563e00,
                -2.760e-02,
                1.220e-04,
                -2.955e-07,
                3.402e-10,
                -1.517e-13,
                0.000e00,
                0.000e00,
                0.000e00,
                8.360e02,
                0.000e00,
                0.000e00,
                0.000e00,
                7.583e02,
                1.000e-02,
                0.000e00,
                0.000e00,
                7.530e02,
# ... 36 like lines cut
            )
        ),
        _F(
            VALE=(
                -1.753e-01,
                1.100e01,
                8.563e00,
                -2.760e-02,
                1.220e-04,
                -2.955e-07,
                3.402e-10,
                -1.517e-13,
                0.000e00,
                0.000e00,
                0.000e00,
                8.360e02,
                0.000e00,
                0.000e00,
                0.000e00,
                7.561e02,
                1.000e-02,
                0.000e00,
                0.000e00,
                7.505e02,
# ... 36 like lines cut
            )
        ),
        _F(
            VALE=(
                -2.206e-01,
                1.100e01,
                8.563e00,
                -2.760e-02,
                1.220e-04,
                -2.955e-07,
                3.402e-10,
                -1.517e-13,
                0.000e00,
                0.000e00,
                0.000e00,
                8.360e02,
                0.000e00,
                0.000e00,
                0.000e00,
                7.539e02,
                1.000e-02,
                0.000e00,
                0.000e00,
                7.480e02,
# ... 36 like lines cut
            )
        ),
        _F(
            VALE=(
                -2.777e-01,
                1.100e01,
                8.563e00,
                -2.760e-02,
                1.220e-04,
                -2.955e-07,
                3.402e-10,
                -1.517e-13,
                0.000e00,
                0.000e00,
                0.000e00,
                8.360e02,
                0.000e00,
                0.000e00,
                0.000e00,
                7.511e02,
                1.000e-02,
                0.000e00,
                0.000e00,
                7.450e02,
# ... 24 like lines cut
            )
        ),
        _F(
            VALE=(
                -3.497e-01,
                1.100e01,
                8.563e00,
                -2.760e-02,
                1.220e-04,
                -2.955e-07,
                3.402e-10,
                -1.517e-13,
                0.000e00,
                0.000e00,
                0.000e00,
                8.360e02,
                0.000e00,
                0.000e00,
                0.000e00,
                7.489e02,
                1.000e-02,
                0.000e00,
                0.000e00,
                7.420e02,
# ... 24 like lines cut
            )
        ),
        _F(
            VALE=(
                -4.402e-01,
                1.100e01,
                8.563e00,
                -2.760e-02,
                1.220e-04,
                -2.955e-07,
                3.402e-10,
                -1.517e-13,
                0.000e00,
                0.000e00,
                0.000e00,
                8.360e02,
                0.000e00,
                0.000e00,
                0.000e00,
                7.473e02,
                1.000e-02,
                0.000e00,
                0.000e00,
                7.395e02,
# ... 24 like lines cut
            )
        ),
        _F(
            VALE=(
                -5.542e-01,
                1.100e01,
                8.563e00,
                -2.760e-02,
                1.220e-04,
                -2.955e-07,
                3.402e-10,
                -1.517e-13,
                0.000e00,
                0.000e00,
                0.000e00,
                8.360e02,
                0.000e00,
                0.000e00,
                0.000e00,
                7.460e02,
                1.000e-02,
                0.000e00,
                0.000e00,
                7.370e02,
# ... 24 like lines cut
            )
        ),
        _F(
            VALE=(
                -6.977e-01,
                1.100e01,
                8.563e00,
                -2.760e-02,
                1.220e-04,
                -2.955e-07,
                3.402e-10,
                -1.517e-13,
                0.000e00,
                0.000e00,
                0.000e00,
                8.360e02,
                0.000e00,
                0.000e00,
                0.000e00,
                7.444e02,
                1.000e-02,
                0.000e00,
                0.000e00,
                7.340e02,
# ... 24 like lines cut
            )
        ),
        _F(
            VALE=(
                -8.784e-01,
                1.100e01,
                8.563e00,
                -2.760e-02,
                1.220e-04,
                -2.955e-07,
                3.402e-10,
                -1.517e-13,
                0.000e00,
                0.000e00,
                0.000e00,
                8.360e02,
                0.000e00,
                0.000e00,
                0.000e00,
                7.436e02,
                1.000e-02,
                0.000e00,
                0.000e00,
                7.310e02,
# ... 24 like lines cut
            )
        ),
        _F(
            VALE=(
                -1.106e00,
                1.100e01,
                8.563e00,
                -2.760e-02,
                1.220e-04,
                -2.955e-07,
                3.402e-10,
                -1.517e-13,
                0.000e00,
                0.000e00,
                0.000e00,
                8.360e02,
                0.000e00,
                0.000e00,
                0.000e00,
                7.380e02,
                1.000e-02,
                0.000e00,
                0.000e00,
                7.200e02,
# ... 24 like lines cut
            )
        ),
        _F(
            VALE=(
                -1.392e00,
                1.100e01,
                8.563e00,
                -2.760e-02,
                1.220e-04,
                -2.955e-07,
                3.402e-10,
                -1.517e-13,
                0.000e00,
                0.000e00,
                0.000e00,
                8.360e02,
                0.000e00,
                0.000e00,
                0.000e00,
                7.200e02,
                1.000e-02,
                0.000e00,
                0.000e00,
                7.000e02,
# ... 24 like lines cut
            )
        ),
        _F(
            VALE=(
                -1.753e00,
                1.100e01,
                8.563e00,
                -2.760e-02,
                1.220e-04,
                -2.955e-07,
                3.402e-10,
                -1.517e-13,
                0.000e00,
                0.000e00,
                0.000e00,
                8.360e02,
                0.000e00,
                0.000e00,
                0.000e00,
                6.850e02,
                1.000e-02,
                0.000e00,
                0.000e00,
                6.750e02,
# ... 24 like lines cut
            )
        ),
        _F(
            VALE=(
                -2.206e00,
                1.100e01,
                8.563e00,
                -2.760e-02,
                1.220e-04,
                -2.955e-07,
                3.402e-10,
                -1.517e-13,
                0.000e00,
                0.000e00,
                0.000e00,
                8.360e02,
                0.000e00,
                0.000e00,
                0.000e00,
                5.587e02,
                0.000e00,
                0.000e00,
                1.000e-02,
                5.550e02,
# ... 8 like lines cut
            )
        ),
        _F(
            VALE=(
                -2.777e00,
                1.100e01,
                8.563e00,
                -2.760e-02,
                1.220e-04,
                -2.955e-07,
                3.402e-10,
                -1.517e-13,
                0.000e00,
                0.000e00,
                0.000e00,
                8.360e02,
                0.000e00,
                0.000e00,
                0.000e00,
                5.536e02,
                0.000e00,
                0.000e00,
                1.000e-02,
                5.500e02,
# ... 8 like lines cut
            )
        ),
        _F(
            VALE=(
                -3.497e00,
                1.100e01,
                8.563e00,
                -2.760e-02,
                1.220e-04,
                -2.955e-07,
                3.402e-10,
                -1.517e-13,
                0.000e00,
                0.000e00,
                0.000e00,
                8.360e02,
                0.000e00,
                0.000e00,
                0.000e00,
                5.458e02,
                0.000e00,
                0.000e00,
                1.000e-02,
                5.425e02,
# ... 8 like lines cut
            )
        ),
        _F(
            VALE=(
                -4.402e00,
                1.100e01,
                8.563e00,
                -2.760e-02,
                1.220e-04,
                -2.955e-07,
                3.402e-10,
                -1.517e-13,
                0.000e00,
                0.000e00,
                0.000e00,
                8.360e02,
                0.000e00,
                0.000e00,
                0.000e00,
                5.383e02,
                0.000e00,
                0.000e00,
                1.000e-02,
                5.350e02,
# ... 8 like lines cut
            )
        ),
        _F(
            VALE=(
                -5.542e00,
                1.100e01,
                8.563e00,
                -2.760e-02,
                1.220e-04,
                -2.955e-07,
                3.402e-10,
                -1.517e-13,
                0.000e00,
                0.000e00,
                0.000e00,
                8.360e02,
                0.000e00,
                0.000e00,
                0.000e00,
                5.309e02,
                0.000e00,
                0.000e00,
                1.000e-02,
                5.275e02,
# ... 8 like lines cut
            )
        ),
        _F(
            VALE=(
                -6.977e00,
                1.100e01,
                8.563e00,
                -2.760e-02,
                1.220e-04,
                -2.955e-07,
                3.402e-10,
                -1.517e-13,
                0.000e00,
                0.000e00,
                0.000e00,
                8.360e02,
                0.000e00,
                0.000e00,
                0.000e00,
                5.235e02,
                0.000e00,
                0.000e00,
                1.000e-02,
                5.200e02,
# ... 8 like lines cut
            )
        ),
        _F(
            VALE=(
                -8.784e00,
                1.100e01,
                8.563e00,
                -2.760e-02,
                1.220e-04,
                -2.955e-07,
                3.402e-10,
                -1.517e-13,
                0.000e00,
                0.000e00,
                0.000e00,
                8.360e02,
                0.000e00,
                0.000e00,
                0.000e00,
                5.088e02,
                0.000e00,
                0.000e00,
                1.000e-02,
                5.050e02,
# ... 8 like lines cut
            )
        ),
        _F(
            VALE=(
                -1.106e01,
                1.100e01,
                8.563e00,
                -2.760e-02,
                1.220e-04,
                -2.955e-07,
                3.402e-10,
                -1.517e-13,
                0.000e00,
                0.000e00,
                0.000e00,
                8.360e02,
                0.000e00,
                0.000e00,
                0.000e00,
                4.942e02,
                0.000e00,
                0.000e00,
                1.000e-02,
                4.900e02,
# ... 8 like lines cut
            )
        ),
        _F(
            VALE=(
                -1.392e01,
                1.100e01,
                8.563e00,
                -2.760e-02,
                1.220e-04,
                -2.955e-07,
                3.402e-10,
                -1.517e-13,
                0.000e00,
                0.000e00,
                0.000e00,
                8.360e02,
                0.000e00,
                0.000e00,
                0.000e00,
                4.804e02,
                0.000e00,
                0.000e00,
                1.000e-02,
                4.750e02,
# ... 8 like lines cut
            )
        ),
        _F(
            VALE=(
                -1.753e01,
                1.100e01,
                8.563e00,
                -2.760e-02,
                1.220e-04,
                -2.955e-07,
                3.402e-10,
                -1.517e-13,
                0.000e00,
                0.000e00,
                0.000e00,
                8.360e02,
                0.000e00,
                0.000e00,
                0.000e00,
                4.692e02,
                0.000e00,
                0.000e00,
                1.000e-02,
                4.600e02,
# ... 8 like lines cut
            )
        ),
        _F(
            VALE=(
                -2.206e01,
                1.100e01,
                8.563e00,
                -2.760e-02,
                1.220e-04,
                -2.955e-07,
                3.402e-10,
                -1.517e-13,
                0.000e00,
                0.000e00,
                0.000e00,
                8.360e02,
                0.000e00,
                0.000e00,
                0.000e00,
                4.540e02,
                0.000e00,
                0.000e00,
                1.000e-02,
                4.450e02,
# ... 8 like lines cut
            )
        ),
        _F(
            VALE=(
                -2.778e01,
                1.100e01,
                8.563e00,
                -2.760e-02,
                1.220e-04,
                -2.955e-07,
                3.402e-10,
                -1.517e-13,
                0.000e00,
                0.000e00,
                0.000e00,
                8.360e02,
                0.000e00,
                0.000e00,
                0.000e00,
                4.400e02,
                0.000e00,
                0.000e00,
                1.000e-02,
                4.300e02,
# ... 8 like lines cut
            )
        ),
        _F(
            VALE=(
                -3.497e01,
                1.100e01,
                8.563e00,
                -2.760e-02,
                1.220e-04,
                -2.955e-07,
                3.402e-10,
                -1.517e-13,
                0.000e00,
                0.000e00,
                0.000e00,
                8.360e02,
                0.000e00,
                0.000e00,
                0.000e00,
                4.270e02,
                0.000e00,
                0.000e00,
                1.000e-02,
                4.150e02,
# ... 8 like lines cut
            )
        ),
    ),
    TEMP_MS=_F(SEUIL=4.500e-01, AKM=-3.125e01, BKM=1.406e01, TPLM=-3.497e00),
)

ACIER = DEFI_MATERIAU(
    THER=_F(LAMBDA=33.5, RHO_CP=5260000.0),
    META_ACIER=_F(
        TRC=TRCMNDA,
        AR3=830.0,
        ALPHA=-0.0306,
        MS0=400.0,
        AC1=724.0,
        AC3=846.0,
        TAUX_1=0.034,
        TAUX_3=0.034,
    ),
    DURT_META=_F(F1_DURT=200.0, F2_DURT=200.0, F3_DURT=300.0, F4_DURT=400.0, C_DURT=100.0),
)

MAIL = LIRE_MAILLAGE(FORMAT="MED")

CHMAT = AFFE_MATERIAU(MAILLAGE=MAIL, AFFE=_F(TOUT="OUI", MATER=ACIER))

MOTH = AFFE_MODELE(MAILLAGE=MAIL, AFFE=_F(TOUT="OUI", PHENOMENE="THERMIQUE", MODELISATION="PLAN"))

TIMPO = DEFI_FONCTION(
    NOM_PARA="INST",
    NOM_RESU="TEMP",
    VALE=(0.0, 700.0, 200.0, 900.0),
    PROL_DROITE="LINEAIRE",
    PROL_GAUCHE="LINEAIRE",
)

CHTH1 = AFFE_CHAR_THER_F(MODELE=MOTH, TEMP_IMPO=_F(TOUT="OUI", TEMP=TIMPO))

CHTH2 = AFFE_CHAR_THER(MODELE=MOTH, ECHANGE=_F(GROUP_MA="GRMA3", COEF_H=1675.0, TEMP_EXT=15.0))

LR8 = DEFI_LIST_REEL(
    DEBUT=0.0,
    INTERVALLE=(
        _F(JUSQU_A=200.0, NOMBRE=40),
        _F(JUSQU_A=240.0, NOMBRE=40),
        _F(JUSQU_A=410.0, NOMBRE=85),
    ),
)

PHASINIT = CREA_CHAMP(
    TYPE_CHAM="CART_VAR2_R",
    OPERATION="AFFE",
    MAILLAGE=MAIL,
    AFFE=_F(
        TOUT="OUI",
        NOM_CMP=("V1", "V2", "V3", "V4", "V5", "V6", "V7"),
        VALE=(0.7, 0.0, 0.3, 0.0, 0.0, 0.0, 0.0),
    ),
)

TEMPE = THER_LINEAIRE(
    MODELE=MOTH,
    CHAM_MATER=CHMAT,
    EXCIT=_F(CHARGE=CHTH1),
    INCREMENT=_F(LIST_INST=LR8, NUME_INST_FIN=40),
    ETAT_INIT=_F(VALE=700.0),
    PARM_THETA=0.57,
)

TEMPE = CALC_META(
    reuse=TEMPE,
    MODELE=MOTH,
    CHAM_MATER=CHMAT,
    RESULTAT=TEMPE,
    ETAT_INIT=_F(META_INIT_ELNO=PHASINIT),
    COMPORTEMENT=_F(RELATION="ACIER", TOUT="OUI"),
    OPTION="META_ELNO",
)

TEMPE = CALC_META(reuse=TEMPE, RESULTAT=TEMPE, OPTION="DURT_ELNO")

TEMPE1 = EXTR_RESU(RESULTAT=TEMPE, ARCHIVAGE=_F(INST=(195.0, 200.0)))

TEMPE1 = THER_LINEAIRE(
    reuse=TEMPE1,
    MODELE=MOTH,
    CHAM_MATER=CHMAT,
    PARM_THETA=0.57,
    EXCIT=_F(CHARGE=CHTH2),
    INCREMENT=_F(LIST_INST=LR8, NUME_INST_INIT=40),
    ETAT_INIT=_F(EVOL_THER=TEMPE1, NUME_ORDRE=40),
)

TEMPE1 = CALC_META(
    reuse=TEMPE1,
    RESULTAT=TEMPE1,
    MODELE=MOTH,
    CHAM_MATER=CHMAT,
    ETAT_INIT=_F(EVOL_THER=TEMPE1, INST_INIT=200.0),
    COMPORTEMENT=_F(RELATION="ACIER", TOUT="OUI"),
    OPTION=("META_ELNO", "DURT_ELNO"),
)

TEST_RESU(
    RESU=(
        _F(
            INST=300.0,
            REFERENCE="NON_DEFINI",
            RESULTAT=TEMPE1,
            NOM_CHAM="META_ELNO",
            GROUP_NO="N66",
            NOM_CMP="V3",
            VALE_CALC=0.621941572114441,
            VALE_REFE=0.621941572114441,
            CRITERE="RELATIF",
            PRECISION=1.0e-6,
            GROUP_MA="M19",
        ),
        _F(
            INST=300.0,
            REFERENCE="NON_DEFINI",
            RESULTAT=TEMPE1,
            NOM_CHAM="META_ELNO",
            GROUP_NO="N70",
            NOM_CMP="V3",
            VALE_CALC=0.2353288804786275,
            VALE_REFE=0.2353288804786275,
            CRITERE="RELATIF",
            PRECISION=1.0e-6,
            GROUP_MA="M19",
        ),
        _F(
            INST=300.0,
            REFERENCE="NON_DEFINI",
            RESULTAT=TEMPE1,
            NOM_CHAM="META_ELNO",
            GROUP_NO="N39",
            NOM_CMP="V3",
            VALE_CALC=0.26763768402081595,
            VALE_REFE=0.26763768402081595,
            CRITERE="RELATIF",
            PRECISION=1.0e-6,
            GROUP_MA="M13",
        ),
        _F(
            INST=410.0,
            REFERENCE="NON_DEFINI",
            RESULTAT=TEMPE1,
            NOM_CHAM="META_ELNO",
            GROUP_NO="N39",
            NOM_CMP="V4",
            VALE_CALC=0.2259352731187507,
            VALE_REFE=0.2259352731187507,
            PRECISION=1.0e-6,
            CRITERE="RELATIF",
            GROUP_MA="M13",
        ),
        _F(
            INST=410.0,
            REFERENCE="NON_DEFINI",
            RESULTAT=TEMPE1,
            NOM_CHAM="META_ELNO",
            GROUP_NO="N66",
            NOM_CMP="V4",
            VALE_CALC=0.37571454128046644,
            VALE_REFE=0.37571454128046644,
            CRITERE="RELATIF",
            PRECISION=1.0e-6,
            GROUP_MA="M19",
        ),
        _F(
            INST=410.0,
            REFERENCE="NON_DEFINI",
            RESULTAT=TEMPE1,
            NOM_CHAM="META_ELNO",
            GROUP_NO="N70",
            NOM_CMP="V4",
            VALE_CALC=0.7601298580872671,
            VALE_REFE=0.7601298580872671,
            CRITERE="RELATIF",
            PRECISION=1.0e-6,
            GROUP_MA="M19",
        ),
        _F(
            INST=30.0,
            REFERENCE="NON_DEFINI",
            RESULTAT=TEMPE,
            NOM_CHAM="DURT_ELNO",
            GROUP_NO="N1",
            NOM_CMP="HV",
            VALE_CALC=223.642786885246,
            VALE_REFE=223.642786885246,
            CRITERE="RELATIF",
            PRECISION=1.0e-6,
            GROUP_MA="M1",
        ),
        _F(
            INST=140.0,
            REFERENCE="NON_DEFINI",
            RESULTAT=TEMPE,
            NOM_CHAM="DURT_ELNO",
            GROUP_NO="N1",
            NOM_CMP="HV",
            VALE_CALC=106.42967213114756,
            VALE_REFE=106.42967213114756,
            CRITERE="RELATIF",
            PRECISION=1.0e-6,
            GROUP_MA="M1",
        ),
        _F(
            INST=300.0,
            REFERENCE="NON_DEFINI",
            RESULTAT=TEMPE1,
            NOM_CHAM="DURT_ELNO",
            GROUP_NO="N1",
            NOM_CMP="HV",
            VALE_CALC=100.000000000,
            VALE_REFE=100.0,
            CRITERE="RELATIF",
            PRECISION=1.0e-6,
            GROUP_MA="M1",
        ),
        _F(
            INST=410.0,
            REFERENCE="NON_DEFINI",
            RESULTAT=TEMPE1,
            NOM_CHAM="DURT_ELNO",
            GROUP_NO="N1",
            NOM_CMP="HV",
            VALE_CALC=309.6223405462362,
            VALE_REFE=309.6223405462362,
            CRITERE="RELATIF",
            PRECISION=1.0e-6,
            GROUP_MA="M1",
        ),
    )
)

TAB = CREA_TABLE(RESU=(_F(RESULTAT=TEMPE1, NOM_CHAM="TEMP", TOUT_CMP="OUI", TOUT="OUI")))

IMPR_TABLE(TABLE=TAB, UNITE=80)

TEST_TABLE(
    TABLE=TAB,
    FILTRE=(
        _F(NOM_PARA="INST", CRIT_COMP="EQ", VALE=300.0),
        _F(NOM_PARA="NOEUD", CRIT_COMP="EQ", VALE_K="39"),
    ),
    NOM_PARA="TEMP",
    REFERENCE="ANALYTIQUE",
    VALE_CALC=477.5698311435431,
    VALE_REFE=4.7731e02,
    PRECISION=0.01,
)

TEST_TABLE(
    TABLE=TAB,
    FILTRE=(
        _F(NOM_PARA="INST", CRIT_COMP="EQ", VALE=410.0),
        _F(NOM_PARA="NOEUD", CRIT_COMP="EQ", VALE_K="39"),
    ),
    NOM_PARA="TEMP",
    REFERENCE="ANALYTIQUE",
    VALE_CALC=236.4019787938465,
    VALE_REFE=2.3615e02,
    PRECISION=0.01,
)


TEST_TABLE(
    TABLE=TAB,
    FILTRE=(
        _F(NOM_PARA="INST", CRIT_COMP="EQ", VALE=300.0),
        _F(NOM_PARA="NOEUD", CRIT_COMP="EQ", VALE_K="66"),
    ),
    NOM_PARA="TEMP",
    REFERENCE="ANALYTIQUE",
    VALE_CALC=352.43282994874374,
    VALE_REFE=3.5217e02,
    PRECISION=0.01,
)

TEST_TABLE(
    TABLE=TAB,
    FILTRE=(
        _F(NOM_PARA="INST", CRIT_COMP="EQ", VALE=410.0),
        _F(NOM_PARA="NOEUD", CRIT_COMP="EQ", VALE_K="66"),
    ),
    NOM_PARA="TEMP",
    REFERENCE="ANALYTIQUE",
    VALE_CALC=174.26693218023215,
    VALE_REFE=1.7408e02,
    PRECISION=0.01,
)


TEST_TABLE(
    TABLE=TAB,
    FILTRE=(
        _F(NOM_PARA="INST", CRIT_COMP="EQ", VALE=300.0),
        _F(NOM_PARA="NOEUD", CRIT_COMP="EQ", VALE_K="70"),
    ),
    NOM_PARA="TEMP",
    REFERENCE="ANALYTIQUE",
    VALE_CALC=232.47578399070483,
    VALE_REFE=2.3227e02,
    PRECISION=0.01,
)

TEST_TABLE(
    TABLE=TAB,
    FILTRE=(
        _F(NOM_PARA="INST", CRIT_COMP="EQ", VALE=410.0),
        _F(NOM_PARA="NOEUD", CRIT_COMP="EQ", VALE_K="70"),
    ),
    NOM_PARA="TEMP",
    REFERENCE="ANALYTIQUE",
    VALE_CALC=116.59144819418344,
    VALE_REFE=1.1647e02,
    PRECISION=0.01,
)


FIN()
