# coding=utf-8
# --------------------------------------------------------------------
# Copyright (C) 1991 - 2025 - EDF R&D - www.code-aster.org
# This file is part of code_aster.
#
# code_aster is free software: you can redistribute it and/or modify
# it under the terms of the GNU General Public License as published by
# the Free Software Foundation, either version 3 of the License, or
# (at your option) any later version.
#
# code_aster is distributed in the hope that it will be useful,
# but WITHOUT ANY WARRANTY; without even the implied warranty of
# MERCHANTABILITY or FITNESS FOR A PARTICULAR PURPOSE.  See the
# GNU General Public License for more details.
#
# You should have received a copy of the GNU General Public License
# along with code_aster.  If not, see <http://www.gnu.org/licenses/>.
# --------------------------------------------------------------------

#       SYSTEME MASSE-RESSORT A 2 DEGRES DE LIBERTE
#       ANALYSE SPECTRALE MULTI SUPPORTEE, ECITATIONS CORRELEES
#
#

DEBUT(CODE="OUI", DEBUG=_F(SDVERI="OUI"), IMPR_MACRO="OUI")

#

MAILLAG0 = LIRE_MAILLAGE(FORMAT="ASTER")

#

MAILLAGE = CREA_MAILLAGE(MAILLAGE=MAILLAG0, CREA_POI1=(_F(NOM_GROUP_MA="MASSE", GROUP_NO="MASSE"),))


MODELE = AFFE_MODELE(
    MAILLAGE=MAILLAGE,
    AFFE=(
        _F(GROUP_MA=("RESK", "RES2K"), PHENOMENE="MECANIQUE", MODELISATION="DIS_T"),
        _F(GROUP_MA=("MASSE",), PHENOMENE="MECANIQUE", MODELISATION="DIS_T"),
    ),
)

#
CARA = AFFE_CARA_ELEM(
    MODELE=MODELE,
    DISCRET=(
        _F(GROUP_MA="RESK", CARA="K_T_D_L", VALE=(1.0e5, 1.0, 1.0)),
        _F(
            GROUP_MA="RESK",
            CARA="M_T_L",
            VALE=(
                0.0,
                0.0,
                0.0,
                0.0,
                0.0,
                0.0,
                0.0,
                0.0,
                0.0,
                0.0,
                0.0,
                0.0,
                0.0,
                0.0,
                0.0,
                0.0,
                0.0,
                0.0,
                0.0,
                0.0,
                0.0,
            ),
        ),
        _F(GROUP_MA="RES2K", CARA="K_T_D_L", VALE=(2.0e5, 1.0, 1.0)),
        _F(
            GROUP_MA="RES2K",
            CARA="M_T_L",
            VALE=(
                0.0,
                0.0,
                0.0,
                0.0,
                0.0,
                0.0,
                0.0,
                0.0,
                0.0,
                0.0,
                0.0,
                0.0,
                0.0,
                0.0,
                0.0,
                0.0,
                0.0,
                0.0,
                0.0,
                0.0,
                0.0,
            ),
        ),
        _F(GROUP_MA="MASSE", CARA="M_T_D_N", VALE=(2533.0,)),
    ),
)

#

MAT = DEFI_MATERIAU(ELAS=_F(E=1.6e11, RHO=1.3e04, NU=0.3))

#

CHAMPMAT = AFFE_MATERIAU(MAILLAGE=MAILLAGE, AFFE=_F(TOUT="OUI", MATER=MAT))

#

COND_LIM = AFFE_CHAR_MECA(
    MODELE=MODELE,
    DDL_IMPO=(
        _F(GROUP_NO=("P1", "P4"), DX=0.0, DY=0.0, DZ=0.0),
        _F(GROUP_NO="MASSE", DY=0.0, DZ=0.0),
    ),
)

#

RIGIELEM = CALC_MATR_ELEM(MODELE=MODELE, OPTION="RIGI_MECA", CHARGE=COND_LIM, CARA_ELEM=CARA)

#

MASSELEM = CALC_MATR_ELEM(MODELE=MODELE, OPTION="MASS_MECA", CHARGE=COND_LIM, CARA_ELEM=CARA)

#

NUMEROTA = NUME_DDL(MATR_RIGI=RIGIELEM)

#

MATRRIGI = ASSE_MATRICE(MATR_ELEM=RIGIELEM, NUME_DDL=NUMEROTA)

MATRMASS = ASSE_MATRICE(MATR_ELEM=MASSELEM, NUME_DDL=NUMEROTA)

#

MAS = POST_ELEM(MODELE=MODELE, CARA_ELEM=CARA, MASS_INER=_F(TOUT="OUI"))

#

MODES = CALC_MODES(
    CARA_ELEM=CARA,
    MATR_RIGI=MATRRIGI,
    CALC_FREQ=_F(NMAX_FREQ=2),
    MATR_MASS=MATRMASS,
    SOLVEUR_MODAL=_F(METHODE="SORENSEN"),
)

#
MODES = NORM_MODE(reuse=MODES, MODE=MODES, NORME="TRAN")

#
MODES = CALC_CHAMP(reuse=MODES, RESULTAT=MODES, CONTRAINTE=("SIEF_ELGA", "EFGE_ELNO"))


MODES = CALC_CHAMP(reuse=MODES, RESULTAT=MODES, FORCE="FORC_NODA")

MODES = CALC_CHAMP(reuse=MODES, RESULTAT=MODES, FORCE="REAC_NODA")

#
TEST_RESU(
    RESU=(
        _F(
            NUME_ORDRE=1,
            PARA="FREQ",
            RESULTAT=MODES,
            VALE_CALC=1.000005841092,
            VALE_REFE=1.0,
            REFERENCE="ANALYTIQUE",
        ),
        _F(
            NUME_ORDRE=2,
            PARA="FREQ",
            RESULTAT=MODES,
            VALE_CALC=2.2360810385785,
            VALE_REFE=2.236,
            REFERENCE="ANALYTIQUE",
        ),
    )
)

#
# -----------------------------------------------------------------------
#
# CALCUL DES MODES STATIQUES POUR L'ENTRAINEMENT
#
# -----------------------------------------------------------------------
#

MODE_STA = MODE_STATIQUE(
    MATR_RIGI=MATRRIGI,
    MATR_MASS=MATRMASS,
    CARA_ELEM=CARA,
    MODE_STAT=_F(GROUP_NO=("P1", "P4"), AVEC_CMP=("DX",)),
)

#
MODE_STA = CALC_CHAMP(reuse=MODE_STA, RESULTAT=MODE_STA, CONTRAINTE=("SIEF_ELGA", "EFGE_ELNO"))


MODE_STA = CALC_CHAMP(reuse=MODE_STA, RESULTAT=MODE_STA, FORCE="FORC_NODA")

MODE_STA = CALC_CHAMP(reuse=MODE_STA, RESULTAT=MODE_STA, FORCE="REAC_NODA")

#
TEST_RESU(
    RESU=(
        _F(
            RESULTAT=MODE_STA,
            NOM_CHAM="DEPL",
            GROUP_NO="P2",
            NOM_CMP="DX",
            VALE_CALC=0.6,
            VALE_REFE=0.6,
            REFERENCE="ANALYTIQUE",
            NOEUD_CMP=("1", "DX"),
        ),
        _F(
            RESULTAT=MODE_STA,
            NOM_CHAM="DEPL",
            GROUP_NO="P3",
            NOM_CMP="DX",
            VALE_CALC=0.4,
            VALE_REFE=0.4,
            REFERENCE="ANALYTIQUE",
            NOEUD_CMP=("1", "DX"),
        ),
        _F(
            RESULTAT=MODE_STA,
            NOM_CHAM="DEPL",
            GROUP_NO="P2",
            NOM_CMP="DX",
            VALE_CALC=0.4,
            VALE_REFE=0.4,
            REFERENCE="ANALYTIQUE",
            NOEUD_CMP=("4", "DX"),
        ),
        _F(
            RESULTAT=MODE_STA,
            NOM_CHAM="DEPL",
            GROUP_NO="P3",
            NOM_CMP="DX",
            VALE_CALC=0.6,
            VALE_REFE=0.6,
            REFERENCE="ANALYTIQUE",
            NOEUD_CMP=("4", "DX"),
        ),
    )
)

#
#
# -----------------------------------------------------------------------
#
# CALCUL DES MODES STATIQUES POUR LA CORRECTION STATIQUE
#
# -----------------------------------------------------------------------
#

MODE_CO2 = MODE_STATIQUE(
    CARA_ELEM=CARA,
    MATR_RIGI=MATRRIGI,
    MATR_MASS=MATRMASS,
    PSEUDO_MODE=_F(GROUP_NO=("P1", "P4"), AVEC_CMP=("DX",)),
)

#
MODE_CO2 = CALC_CHAMP(reuse=MODE_CO2, RESULTAT=MODE_CO2, CONTRAINTE=("SIEF_ELGA", "EFGE_ELNO"))


MODE_CO2 = CALC_CHAMP(reuse=MODE_CO2, RESULTAT=MODE_CO2, FORCE="FORC_NODA")

MODE_CO2 = CALC_CHAMP(reuse=MODE_CO2, RESULTAT=MODE_CO2, FORCE="REAC_NODA")

#
TEST_RESU(
    RESU=(
        _F(
            RESULTAT=MODE_CO2,
            NOM_CHAM="DEPL",
            GROUP_NO="P2",
            NOM_CMP="DX",
            VALE_CALC=0.01317160,
            VALE_REFE=0.01317,
            REFERENCE="ANALYTIQUE",
            PRECISION=1.0e-3,
            NOEUD_CMP=("1", "DX"),
        ),
        _F(
            RESULTAT=MODE_CO2,
            NOM_CHAM="DEPL",
            GROUP_NO="P3",
            NOM_CMP="DX",
            VALE_CALC=0.0121584,
            VALE_REFE=0.01216,
            REFERENCE="ANALYTIQUE",
            PRECISION=1.0e-3,
            NOEUD_CMP=("1", "DX"),
        ),
        _F(
            RESULTAT=MODE_CO2,
            NOM_CHAM="DEPL",
            GROUP_NO="P2",
            NOM_CMP="DX",
            VALE_CALC=0.0121584,
            VALE_REFE=0.01216,
            REFERENCE="ANALYTIQUE",
            PRECISION=1.0e-3,
            NOEUD_CMP=("4", "DX"),
        ),
        _F(
            RESULTAT=MODE_CO2,
            NOM_CHAM="DEPL",
            GROUP_NO="P3",
            NOM_CMP="DX",
            VALE_CALC=0.0131716,
            VALE_REFE=0.01317,
            REFERENCE="ANALYTIQUE",
            PRECISION=1.0e-3,
            NOEUD_CMP=("4", "DX"),
        ),
    )
)

#
# -------------------------------
#
#   DEFINITION DU SEISME
#
# --------------------------------
#
F0 = 1.0

#
F1 = 1.5

F2 = 2.0

OMEGA1 = 2 * pi * F1

OMEGA2 = 2 * pi * F2

A1 = 0.5

A2 = 0.5

#
L_FREQ = DEFI_LIST_REEL(DEBUT=0.01, INTERVALLE=_F(JUSQU_A=20.0, PAS=0.002))

#
FSRO1 = FORMULE(
    VALE="""
A1*(2*pi*FREQ)**2/abs(OMEGA1**2-(2*pi*FREQ)**2)""",
    A1=A1,
    OMEGA1=OMEGA1,
    NOM_PARA="FREQ",
)
#
FSRO2 = FORMULE(
    VALE="""
A2*(2*pi*FREQ)**2/abs(OMEGA2**2-(2*pi*FREQ)**2)""",
    A2=A2,
    OMEGA2=OMEGA2,
    NOM_PARA="FREQ",
)
#

SRO1 = CALC_FONC_INTERP(
    FONCTION=FSRO1,
    NOM_PARA="FREQ",
    LIST_PARA=L_FREQ,
    PROL_DROITE="LINEAIRE",
    PROL_GAUCHE="LINEAIRE",
    INTERPOL="LOG",
)

SRO2 = CALC_FONC_INTERP(
    FONCTION=FSRO2,
    NOM_PARA="FREQ",
    LIST_PARA=L_FREQ,
    PROL_DROITE="LINEAIRE",
    PROL_GAUCHE="LINEAIRE",
    INTERPOL="LOG",
)

#
SPEC1 = DEFI_NAPPE(
    NOM_PARA="AMOR", INTERPOL=("LIN", "LOG"), PARA=(0.00, 0.05), FONCTION=(SRO1, SRO1)
)

SPEC2 = DEFI_NAPPE(
    NOM_PARA="AMOR", INTERPOL=("LIN", "LOG"), PARA=(0.00, 0.05), FONCTION=(SRO2, SRO2)
)

#
L_TEMPS = DEFI_LIST_REEL(DEBUT=0.0, INTERVALLE=_F(JUSQU_A=30.0, PAS=0.01))

#
# --------------------------------------------------------
#
#   SOLUTION ANALYTIQUE: EXCITATIONS IDENTIQUES AUX APPUIS
#
# ---------------------------------------------------------
#

# Calcul n°1: MONO-APPUI, COMB_MODE=’SRSS’
MONO = COMB_SISM_MODAL(
    MODE_MECA=MODES,
    TYPE_ANALYSE="MONO_APPUI",
    MODE_CORR="NON",
    SPECTRE=(_F(NATURE="ACCE", LIST_AXE=("X"), SPEC_OSCI=SPEC1, ECHELLE=1.0, CORR_FREQ="NON"),),
    COMB_MODE=_F(TYPE="SRSS"),
    OPTION=("DEPL",),
    AMOR_REDUIT=0.0,
    TYPE_RESU=_F(TYPE="VALE_TOTA"),
)

TEST_RESU(
    RESU=(
        _F(
            REFERENCE="ANALYTIQUE",
            RESULTAT=MONO,
            NOM_CHAM="DEPL",
            GROUP_NO="P2",
            NOM_CMP="DX",
            VALE_CALC=0.010132213398354,
            VALE_REFE=0.0101321,
            NOM_CAS="TOTA",
        ),
        _F(
            REFERENCE="ANALYTIQUE",
            RESULTAT=MONO,
            NOM_CHAM="DEPL",
            GROUP_NO="P3",
            NOM_CMP="DX",
            VALE_CALC=0.010132213398354,
            VALE_REFE=0.0101321,
            NOM_CAS="TOTA",
        ),
    )
)

#
# --------------------------------
#
# Calcul n°2: MULTI-APPUI CORRELE, COMB_MODE=’SRSS’
CORRELE = COMB_SISM_MODAL(
    MODE_MECA=MODES,
    AMOR_REDUIT=0.0,
    TYPE_ANALYSE="MULT_APPUI",
    APPUIS=(_F(NOM="A_1", GROUP_NO=("P1")), _F(NOM="A_2", GROUP_NO=("P4"))),
    SPECTRE=(
        _F(NOM_APPUI="A_1", LIST_AXE=("X",), SPEC_OSCI=SPEC1),
        _F(NOM_APPUI="A_2", LIST_AXE=("X",), SPEC_OSCI=SPEC1),
    ),
    GROUP_APPUI_CORRELE=(_F(LIST_APPUI=("A_1", "A_2"), NOM="GA_1"),),
    COMB_MODE=_F(TYPE="SRSS"),
    OPTION="DEPL",
    TYPE_RESU=(_F(TYPE="VALE_TOTA"),),
)

#
TEST_RESU(
    RESU=(
        _F(
            REFERENCE="ANALYTIQUE",
            RESULTAT=CORRELE,
            NOM_CHAM="DEPL",
            GROUP_NO="P2",
            NOM_CMP="DX",
            VALE_CALC=0.010132213398354,
            VALE_REFE=0.0101321,
            NOM_CAS="TOTA",
        ),
        _F(
            REFERENCE="ANALYTIQUE",
            RESULTAT=CORRELE,
            NOM_CHAM="DEPL",
            GROUP_NO="P3",
            NOM_CMP="DX",
            VALE_CALC=0.010132213398354,
            VALE_REFE=0.0101321,
            NOM_CAS="TOTA",
        ),
    )
)

# -------------------------------------------------------------------------------
# Calcul n°3: MULTI-APPUI CORRELE, COMB_MODE=’SRSS’, NOTA: NO1 = SRO1, NO2 = SRO2
MULISRS = COMB_SISM_MODAL(
    MODE_MECA=MODES,
    AMOR_REDUIT=0.00,
    TYPE_ANALYSE="MULT_APPUI",
    APPUIS=(_F(NOM="A_1", GROUP_NO=("P1")), _F(NOM="A_2", GROUP_NO=("P4"))),
    SPECTRE=(
        _F(NOM_APPUI="A_1", LIST_AXE=("X",), SPEC_OSCI=SPEC1),
        _F(NOM_APPUI="A_2", LIST_AXE=("X",), SPEC_OSCI=SPEC2),
    ),
    GROUP_APPUI_CORRELE=(_F(LIST_APPUI=("A_1", "A_2"), NOM="GA_1"),),
    COMB_MODE=_F(TYPE="SRSS"),
    OPTION=("DEPL", "SIEF_ELGA", "EFGE_ELNO", "FORC_NODA", "REAC_NODA"),
    TYPE_RESU=(_F(TYPE="VALE_TOTA"),),
)

#
TEST_RESU(
    RESU=(
        _F(
            RESULTAT=MULISRS,
            NOM_CHAM="DEPL",
            GROUP_NO="P2",
            NOM_CMP="DX",
            VALE_CALC=7.2220784669041e-03,
            VALE_REFE=7.22208e-3,
            REFERENCE="ANALYTIQUE",
            PRECISION=1.0e-3,
            NOM_CAS="TOTA",
        ),
        _F(
            RESULTAT=MULISRS,
            NOM_CHAM="DEPL",
            GROUP_NO="P3",
            NOM_CMP="DX",
            VALE_CALC=7.2220784669041e-03,
            VALE_REFE=7.22208e-3,
            REFERENCE="ANALYTIQUE",
            PRECISION=1.0e-3,
            NOM_CAS="TOTA",
        ),
    )
)

#
# -------------------------------------------------------------------------------
# Calcul n°4: MULTI-APPUI CORRELE, COMB_MODE='ABS', NOTA: NO1 = SRO1, NO2 = SRO2
MULIABS = COMB_SISM_MODAL(
    MODE_MECA=MODES,
    AMOR_REDUIT=0.00,
    TYPE_ANALYSE="MULT_APPUI",
    APPUIS=(_F(NOM="A_1", GROUP_NO=("P1")), _F(NOM="A_2", GROUP_NO=("P4"))),
    SPECTRE=(
        _F(NOM_APPUI="A_1", LIST_AXE=("X",), SPEC_OSCI=SPEC1),
        _F(NOM_APPUI="A_2", LIST_AXE=("X",), SPEC_OSCI=SPEC2),
    ),
    GROUP_APPUI_CORRELE=(_F(LIST_APPUI=("A_1", "A_2"), NOM="GA_1"),),
    COMB_MODE=_F(TYPE="ABS"),
    OPTION=("DEPL", "SIEF_ELGA", "EFGE_ELNO", "FORC_NODA", "REAC_NODA"),
    TYPE_RESU=(_F(TYPE="VALE_TOTA"),),
)

#
TEST_RESU(
    RESU=(
        _F(
            RESULTAT=MULIABS,
            NOM_CHAM="DEPL",
            GROUP_NO="P2",
            NOM_CMP="DX",
            VALE_CALC=7.9828742266207e-03,
            VALE_REFE=7.98287e-3,
            REFERENCE="ANALYTIQUE",
            PRECISION=1.0e-3,
            NOM_CAS="TOTA",
        ),
        _F(
            RESULTAT=MULIABS,
            NOM_CHAM="DEPL",
            GROUP_NO="P3",
            NOM_CMP="DX",
            VALE_CALC=7.9828742266207e-03,
            VALE_REFE=7.98287e-3,
            REFERENCE="ANALYTIQUE",
            PRECISION=1.0e-3,
            NOM_CAS="TOTA",
        ),
    )
)

#
# -------------------------------------------------------------------------------
# Calcul n°5: MULTI-APPUI CORRELE, COMB_MODE='DPC', NOTA: NO1 = SRO1, NO2 = SRO2
MULIDPC = COMB_SISM_MODAL(
    MODE_MECA=MODES,
    AMOR_REDUIT=0.00,
    TYPE_ANALYSE="MULT_APPUI",
    APPUIS=(_F(NOM="A_1", GROUP_NO=("P1")), _F(NOM="A_2", GROUP_NO=("P4"))),
    SPECTRE=(
        _F(NOM_APPUI="A_1", LIST_AXE=("X",), SPEC_OSCI=SPEC1),
        _F(NOM_APPUI="A_2", LIST_AXE=("X",), SPEC_OSCI=SPEC2),
    ),
    GROUP_APPUI_CORRELE=(_F(LIST_APPUI=("A_1", "A_2"), NOM="GA_1"),),
    COMB_MODE=_F(TYPE="DPC"),
    OPTION=("DEPL", "SIEF_ELGA", "EFGE_ELNO", "FORC_NODA", "REAC_NODA"),
    TYPE_RESU=(_F(TYPE="VALE_TOTA"),),
)

#
TEST_RESU(
    RESU=(
        _F(
            REFERENCE="ANALYTIQUE",
            RESULTAT=MULIDPC,
            NOM_CHAM="DEPL",
            GROUP_NO="P2",
            NOM_CMP="DX",
            VALE_CALC=7.2220784669041e-03,
            VALE_REFE=7.22208e-3,
            NOM_CAS="TOTA",
        ),
        _F(
            REFERENCE="ANALYTIQUE",
            RESULTAT=MULIDPC,
            NOM_CHAM="DEPL",
            GROUP_NO="P3",
            NOM_CMP="DX",
            VALE_CALC=7.2220784669041e-03,
            VALE_REFE=7.22208e-3,
            NOM_CAS="TOTA",
        ),
    )
)

# -------------------------------------------------------------------------------
# Calcul n°6: MULTI-APPUI CORRELE, COMB_MODE='CQC', NOTA: NO1 = SRO1, NO2 = SRO2
MULICQC = COMB_SISM_MODAL(
    MODE_MECA=MODES,
    AMOR_REDUIT=0.05,
    TYPE_ANALYSE="MULT_APPUI",
    APPUIS=(_F(NOM="A_1", GROUP_NO=("P1")), _F(NOM="A_2", GROUP_NO=("P4"))),
    SPECTRE=(
        _F(NOM_APPUI="A_1", LIST_AXE=("X",), SPEC_OSCI=SPEC1),
        _F(NOM_APPUI="A_2", LIST_AXE=("X",), SPEC_OSCI=SPEC2),
    ),
    GROUP_APPUI_CORRELE=(_F(LIST_APPUI=("A_1", "A_2"), NOM="GA_1"),),
    COMB_MODE=_F(TYPE="CQC"),
    OPTION=("DEPL", "SIEF_ELGA", "EFGE_ELNO", "FORC_NODA", "REAC_NODA"),
    TYPE_RESU=(_F(TYPE="VALE_TOTA"),),
)

#
TEST_RESU(
    RESU=(
        _F(
            RESULTAT=MULICQC,
            NOM_CHAM="DEPL",
            GROUP_NO="P2",
            NOM_CMP="DX",
            VALE_CALC=7.2113946235059e-03,
            VALE_REFE=7.21139e-3,
            REFERENCE="ANALYTIQUE",
            PRECISION=1.0e-3,
            NOM_CAS="TOTA",
        ),
        _F(
            RESULTAT=MULICQC,
            NOM_CHAM="DEPL",
            GROUP_NO="P3",
            NOM_CMP="DX",
            VALE_CALC=7.2327465286923e-03,
            VALE_REFE=7.23274e-3,
            REFERENCE="ANALYTIQUE",
            PRECISION=1.0e-3,
            NOM_CAS="TOTA",
        ),
    )
)

#
# -------------------------------------------------------------------------------
# Calcul n°7: MULTI-APPUI CORRELE, COMB_MODE='DPC', NOTA: NO1 = SRO1, NO2 = SRO2
MULIDSC = COMB_SISM_MODAL(
    MODE_MECA=MODES,
    AMOR_REDUIT=0.05,
    TYPE_ANALYSE="MULT_APPUI",
    APPUIS=(_F(NOM="A_1", GROUP_NO=("P1")), _F(NOM="A_2", GROUP_NO=("P4"))),
    SPECTRE=(
        _F(NOM_APPUI="A_1", LIST_AXE=("X",), SPEC_OSCI=SPEC1),
        _F(NOM_APPUI="A_2", LIST_AXE=("X",), SPEC_OSCI=SPEC2),
    ),
    GROUP_APPUI_CORRELE=(_F(LIST_APPUI=("A_1", "A_2"), NOM="GA_1"),),
    COMB_MODE=_F(TYPE="DSC", DUREE=15.0),
    OPTION=("DEPL", "SIEF_ELGA", "EFGE_ELNO", "FORC_NODA", "REAC_NODA"),
    TYPE_RESU=(_F(TYPE="VALE_TOTA"),),
)

#
TEST_RESU(
    RESU=(
        _F(
            RESULTAT=MULIDSC,
            NOM_CHAM="DEPL",
            GROUP_NO="P2",
            NOM_CMP="DX",
            VALE_CALC=7.2007139308409e-03,
            VALE_REFE=7.20071e-3,
            REFERENCE="ANALYTIQUE",
            PRECISION=1.0e-3,
            NOM_CAS="TOTA",
        ),
        _F(
            RESULTAT=MULIDSC,
            NOM_CHAM="DEPL",
            GROUP_NO="P3",
            NOM_CMP="DX",
            VALE_CALC=7.2433799879914e-03,
            VALE_REFE=7.24338e-3,
            REFERENCE="ANALYTIQUE",
            PRECISION=1.0e-3,
            NOM_CAS="TOTA",
        ),
    )
)

# --------------------------------------
# Calcul n°8: MULTI-APPUI CORRELE, COMB_MODE=’SRSS’, CUMUL_INTRA = 'QUAD'
# NOTA: NO1 = SRO1, NO2 = SRO2
MUL_QUAD_SRS = COMB_SISM_MODAL(
    MODE_MECA=MODES,
    AMOR_REDUIT=0.00,
    TYPE_ANALYSE="MULT_APPUI",
    APPUIS=(_F(NOM="A_1", GROUP_NO=("P1")), _F(NOM="A_2", GROUP_NO=("P4"))),
    SPECTRE=(
        _F(NOM_APPUI="A_1", LIST_AXE=("X",), SPEC_OSCI=SPEC1),
        _F(NOM_APPUI="A_2", LIST_AXE=("X",), SPEC_OSCI=SPEC2),
    ),
    GROUP_APPUI_CORRELE=(_F(LIST_APPUI=("A_1", "A_2"), NOM="GA_1"),),
    COMB_MODE=_F(TYPE="SRSS"),
    CUMUL_INTRA="QUAD",
    OPTION=("DEPL", "SIEF_ELGA", "EFGE_ELNO", "FORC_NODA", "REAC_NODA"),
    TYPE_RESU=(_F(TYPE="VALE_TOTA"),),
)


#
TEST_RESU(
    RESU=(
        _F(
            RESULTAT=MUL_QUAD_SRS,
            NOM_CHAM="DEPL",
            GROUP_NO="P2",
            NOM_CMP="DX",
            VALE_CALC=5.65129788e-03,
            VALE_REFE=5.6512973681333420e-03,
            REFERENCE="ANALYTIQUE",
            PRECISION=1.0e-3,
            NOM_CAS="TOTA",
        ),
        _F(
            RESULTAT=MUL_QUAD_SRS,
            NOM_CHAM="DEPL",
            GROUP_NO="P3",
            NOM_CMP="DX",
            VALE_CALC=5.65129788e-03,
            VALE_REFE=5.6512973681333402e-03,
            REFERENCE="ANALYTIQUE",
            PRECISION=1.0e-3,
            NOM_CAS="TOTA",
        ),
    )
)

# -------------------------------------------------------------------------------
# Calcul n°9: MULTI-APPUI CORRELE, COMB_MODE=’SRSS’, CUMUL_INTRA = 'ABS'
# NOTA: NO1 = SRO1, NO2 = SRO2
MUL_ABS_SRS = COMB_SISM_MODAL(
    MODE_MECA=MODES,
    AMOR_REDUIT=0.00,
    TYPE_ANALYSE="MULT_APPUI",
    APPUIS=(_F(NOM="A_1", GROUP_NO=("P1")), _F(NOM="A_2", GROUP_NO=("P4"))),
    SPECTRE=(
        _F(NOM_APPUI="A_1", LIST_AXE=("X",), SPEC_OSCI=SPEC1),
        _F(NOM_APPUI="A_2", LIST_AXE=("X",), SPEC_OSCI=SPEC2),
    ),
    GROUP_APPUI_CORRELE=(_F(LIST_APPUI=("A_1", "A_2"), NOM="GA_1"),),
    COMB_MODE=_F(TYPE="SRSS"),
    CUMUL_INTRA="ABS",
    OPTION=("DEPL", "SIEF_ELGA", "EFGE_ELNO", "FORC_NODA", "REAC_NODA"),
    TYPE_RESU=(_F(TYPE="VALE_TOTA"),),
)


#
TEST_RESU(
    RESU=(
        _F(
            RESULTAT=MUL_ABS_SRS,
            NOM_CHAM="DEPL",
            GROUP_NO="P2",
            NOM_CMP="DX",
            VALE_CALC=7.38182988e-03,
            VALE_REFE=7.3818293207962519e-03,
            REFERENCE="ANALYTIQUE",
            PRECISION=1.0e-3,
            NOM_CAS="TOTA",
        ),
        _F(
            RESULTAT=MUL_ABS_SRS,
            NOM_CHAM="DEPL",
            GROUP_NO="P3",
            NOM_CMP="DX",
            VALE_CALC=7.38182988e-03,
            VALE_REFE=7.3818293207962501e-03,
            REFERENCE="ANALYTIQUE",
            PRECISION=1.0e-3,
            NOM_CAS="TOTA",
        ),
    )
)


FIN()
