# coding=utf-8
# --------------------------------------------------------------------
# Copyright (C) 1991 - 2025 - EDF R&D - www.code-aster.org
# This file is part of code_aster.
#
# code_aster is free software: you can redistribute it and/or modify
# it under the terms of the GNU General Public License as published by
# the Free Software Foundation, either version 3 of the License, or
# (at your option) any later version.
#
# code_aster is distributed in the hope that it will be useful,
# but WITHOUT ANY WARRANTY; without even the implied warranty of
# MERCHANTABILITY or FITNESS FOR A PARTICULAR PURPOSE.  See the
# GNU General Public License for more details.
#
# You should have received a copy of the GNU General Public License
# along with code_aster.  If not, see <http://www.gnu.org/licenses/>.
# --------------------------------------------------------------------

#
DEBUT(CODE="OUI", DEBUG=_F(SDVERI="OUI"))
#
MAILLAG0 = LIRE_MAILLAGE(FORMAT="ASTER")
#

MAILLAGE = CREA_MAILLAGE(MAILLAGE=MAILLAG0, CREA_POI1=(_F(NOM_GROUP_MA="MASSE", GROUP_NO="MASSE"),))

DEFI_GROUP(reuse=MAILLAGE, MAILLAGE=MAILLAGE, CREA_GROUP_NO=_F(NOM="P1P4", NOEUD=("N1", "N4")))

MODELE = AFFE_MODELE(
    MAILLAGE=MAILLAGE,
    AFFE=(
        _F(GROUP_MA=("RESK", "RES2K"), PHENOMENE="MECANIQUE", MODELISATION="DIS_T"),
        _F(GROUP_MA=("MASSE",), PHENOMENE="MECANIQUE", MODELISATION="DIS_T"),
    ),
)

#
CARA = AFFE_CARA_ELEM(
    MODELE=MODELE,
    DISCRET=(
        _F(GROUP_MA="RESK", CARA="K_T_D_L", VALE=(1.0e5, 1.0, 1.0)),
        _F(
            GROUP_MA="RESK",
            CARA="M_T_L",
            VALE=(
                0.0,
                0.0,
                0.0,
                0.0,
                0.0,
                0.0,
                0.0,
                0.0,
                0.0,
                0.0,
                0.0,
                0.0,
                0.0,
                0.0,
                0.0,
                0.0,
                0.0,
                0.0,
                0.0,
                0.0,
                0.0,
            ),
        ),
        _F(GROUP_MA="RES2K", CARA="K_T_D_L", VALE=(2.0e5, 1.0, 1.0)),
        _F(
            GROUP_MA="RES2K",
            CARA="M_T_L",
            VALE=(
                0.0,
                0.0,
                0.0,
                0.0,
                0.0,
                0.0,
                0.0,
                0.0,
                0.0,
                0.0,
                0.0,
                0.0,
                0.0,
                0.0,
                0.0,
                0.0,
                0.0,
                0.0,
                0.0,
                0.0,
                0.0,
            ),
        ),
        _F(GROUP_MA="MASSE", CARA="M_T_D_N", VALE=(2533.0,)),
    ),
)

#

MAT = DEFI_MATERIAU(ELAS=_F(E=1.6e11, RHO=1.3e04, NU=0.3))

#

CHAMPMAT = AFFE_MATERIAU(MAILLAGE=MAILLAGE, AFFE=_F(TOUT="OUI", MATER=MAT))

#

COND_LIM = AFFE_CHAR_MECA(
    MODELE=MODELE,
    DDL_IMPO=(
        _F(GROUP_NO=("P1", "P4"), DX=0.0, DY=0.0, DZ=0.0),
        _F(GROUP_NO="MASSE", DY=0.0, DZ=0.0),
    ),
)

#

RIGIELEM = CALC_MATR_ELEM(MODELE=MODELE, OPTION="RIGI_MECA", CHARGE=COND_LIM, CARA_ELEM=CARA)

#

MASSELEM = CALC_MATR_ELEM(MODELE=MODELE, OPTION="MASS_MECA", CHARGE=COND_LIM, CARA_ELEM=CARA)

#

NUMEROTA = NUME_DDL(MATR_RIGI=RIGIELEM)

#

MATRRIGI = ASSE_MATRICE(MATR_ELEM=RIGIELEM, NUME_DDL=NUMEROTA)

MATRMASS = ASSE_MATRICE(MATR_ELEM=MASSELEM, NUME_DDL=NUMEROTA)

#

MAS = POST_ELEM(MODELE=MODELE, CARA_ELEM=CARA, MASS_INER=_F(TOUT="OUI"))

#

MODES = CALC_MODES(
    MATR_RIGI=MATRRIGI,
    CARA_ELEM=CARA,
    CALC_FREQ=_F(NMAX_FREQ=2),
    MATR_MASS=MATRMASS,
    SOLVEUR_MODAL=_F(METHODE="SORENSEN"),
)


#
MODES = NORM_MODE(reuse=MODES, MODE=MODES, NORME="TRAN")

#
MODES = CALC_CHAMP(reuse=MODES, RESULTAT=MODES, CONTRAINTE=("SIEF_ELGA", "EFGE_ELNO"))


MODES = CALC_CHAMP(reuse=MODES, RESULTAT=MODES, FORCE="FORC_NODA")

MODES = CALC_CHAMP(reuse=MODES, RESULTAT=MODES, FORCE="REAC_NODA")

#
TEST_RESU(
    RESU=(
        _F(
            NUME_ORDRE=1,
            PARA="FREQ",
            REFERENCE="ANALYTIQUE",
            RESULTAT=MODES,
            VALE_CALC=1.000005841,
            VALE_REFE=1.0,
        ),
        _F(
            NUME_ORDRE=2,
            PARA="FREQ",
            REFERENCE="ANALYTIQUE",
            RESULTAT=MODES,
            VALE_CALC=2.236081039,
            VALE_REFE=2.2360000000000002,
        ),
    )
)

#
# -----------------------------------------------------------------------
#
# CALCUL DES MODES STATIQUES POUR L'ENTRAINEMENT
#
# -----------------------------------------------------------------------
#

MODE_STA = MODE_STATIQUE(
    CARA_ELEM=CARA,
    MATR_RIGI=MATRRIGI,
    MATR_MASS=MATRMASS,
    MODE_STAT=_F(GROUP_NO=("P1", "P4"), AVEC_CMP=("DX",)),
)

# Réponse à un déplacement unitaire aux noeuds
MODE_STA = CALC_CHAMP(reuse=MODE_STA, RESULTAT=MODE_STA, CONTRAINTE=("SIEF_ELGA", "EFGE_ELNO"))


MODE_STA = CALC_CHAMP(reuse=MODE_STA, RESULTAT=MODE_STA, FORCE="FORC_NODA")

MODE_STA = CALC_CHAMP(reuse=MODE_STA, RESULTAT=MODE_STA, FORCE="REAC_NODA")

#
TEST_RESU(
    RESU=(
        _F(
            REFERENCE="ANALYTIQUE",
            RESULTAT=MODE_STA,
            NOM_CHAM="DEPL",
            GROUP_NO="P2",
            NOM_CMP="DX",
            VALE_CALC=0.600000000,
            VALE_REFE=0.59999999999999998,
            NOEUD_CMP=("1", "DX"),
        ),
        _F(
            REFERENCE="ANALYTIQUE",
            RESULTAT=MODE_STA,
            NOM_CHAM="DEPL",
            GROUP_NO="P3",
            NOM_CMP="DX",
            VALE_CALC=0.400000000,
            VALE_REFE=0.40000000000000002,
            NOEUD_CMP=("1", "DX"),
        ),
        _F(
            REFERENCE="ANALYTIQUE",
            RESULTAT=MODE_STA,
            NOM_CHAM="DEPL",
            GROUP_NO="P2",
            NOM_CMP="DX",
            VALE_CALC=0.400000000,
            VALE_REFE=0.40000000000000002,
            NOEUD_CMP=("4", "DX"),
        ),
        _F(
            REFERENCE="ANALYTIQUE",
            RESULTAT=MODE_STA,
            NOM_CHAM="DEPL",
            GROUP_NO="P3",
            NOM_CMP="DX",
            VALE_CALC=0.600000000,
            VALE_REFE=0.59999999999999998,
            NOEUD_CMP=("4", "DX"),
        ),
    )
)


#
# Réaction nodale aux noeds 1 et 4 :
TEST_RESU(
    RESU=(
        _F(
            REFERENCE="ANALYTIQUE",
            RESULTAT=MODE_STA,
            NOM_CHAM="REAC_NODA",
            GROUP_NO="P1",
            NOM_CMP="DX",
            VALE_CALC=4.00000000e04,
            VALE_REFE=4.00000000e04,
            NOEUD_CMP=("1", "DX"),
        ),
        _F(
            REFERENCE="ANALYTIQUE",
            RESULTAT=MODE_STA,
            NOM_CHAM="REAC_NODA",
            GROUP_NO="P4",
            NOM_CMP="DX",
            VALE_CALC=-4.00000000e04,
            VALE_REFE=-4.00000000e04,
            NOEUD_CMP=("1", "DX"),
        ),
        _F(
            REFERENCE="ANALYTIQUE",
            RESULTAT=MODE_STA,
            NOM_CHAM="REAC_NODA",
            GROUP_NO="P1",
            NOM_CMP="DX",
            VALE_CALC=-4.00000000e04,
            VALE_REFE=-4.00000000e04,
            NOEUD_CMP=("4", "DX"),
        ),
        _F(
            REFERENCE="ANALYTIQUE",
            RESULTAT=MODE_STA,
            NOM_CHAM="REAC_NODA",
            GROUP_NO="P4",
            NOM_CMP="DX",
            VALE_CALC=4.00000000e04,
            VALE_REFE=4.00000000e04,
            NOEUD_CMP=("4", "DX"),
        ),
    )
)


#
#
# -----------------------------------------------------------------------
#
# CALCUL DES MODES STATIQUES POUR LA CORRECTION STATIQUE
#
# -----------------------------------------------------------------------
#
MODE_CO2 = MODE_STATIQUE(
    MATR_RIGI=MATRRIGI,
    MATR_MASS=MATRMASS,
    CARA_ELEM=CARA,
    PSEUDO_MODE=_F(
        GROUP_NO=("P1", "P4"),
        AVEC_CMP=("DX",),
        # AVEC_CMP = ( 'DX','DY','DZ' ),
    ),
)
IMPR_RESU(FORMAT="RESULTAT", RESU=_F(RESULTAT=MODE_CO2))


#
MODE_CO2 = CALC_CHAMP(reuse=MODE_CO2, RESULTAT=MODE_CO2, CONTRAINTE=("SIEF_ELGA", "EFGE_ELNO"))


MODE_CO2 = CALC_CHAMP(reuse=MODE_CO2, RESULTAT=MODE_CO2, FORCE="FORC_NODA")

MODE_CO2 = CALC_CHAMP(reuse=MODE_CO2, RESULTAT=MODE_CO2, FORCE="REAC_NODA")

#
TEST_RESU(
    RESU=(
        _F(
            REFERENCE="ANALYTIQUE",
            RESULTAT=MODE_CO2,
            NOM_CHAM="DEPL",
            GROUP_NO="P2",
            NOM_CMP="DX",
            VALE_CALC=0.013171600,
            VALE_REFE=0.013169999999999999,
            NOEUD_CMP=("1", "DX"),
        ),
        _F(
            REFERENCE="ANALYTIQUE",
            RESULTAT=MODE_CO2,
            NOM_CHAM="DEPL",
            GROUP_NO="P3",
            NOM_CMP="DX",
            VALE_CALC=0.012158400,
            VALE_REFE=0.012160000000000001,
            NOEUD_CMP=("1", "DX"),
        ),
        _F(
            REFERENCE="ANALYTIQUE",
            RESULTAT=MODE_CO2,
            NOM_CHAM="DEPL",
            GROUP_NO="P2",
            NOM_CMP="DX",
            VALE_CALC=0.012158400,
            VALE_REFE=0.012160000000000001,
            NOEUD_CMP=("4", "DX"),
        ),
        _F(
            REFERENCE="ANALYTIQUE",
            RESULTAT=MODE_CO2,
            NOM_CHAM="DEPL",
            GROUP_NO="P3",
            NOM_CMP="DX",
            VALE_CALC=0.013171600,
            VALE_REFE=0.013169999999999999,
            NOEUD_CMP=("4", "DX"),
        ),
    )
)


#
TEST_RESU(
    RESU=(
        _F(
            REFERENCE="ANALYTIQUE",
            RESULTAT=MODE_CO2,
            NOM_CHAM="REAC_NODA",
            GROUP_NO="P1",
            NOM_CMP="DX",
            VALE_CALC=-1.31716000e03,
            VALE_REFE=-1317.16,
            NOEUD_CMP=("1", "DX"),
        ),
        _F(
            REFERENCE="ANALYTIQUE",
            RESULTAT=MODE_CO2,
            NOM_CHAM="REAC_NODA",
            GROUP_NO="P4",
            NOM_CMP="DX",
            VALE_CALC=-1.21584000e03,
            VALE_REFE=-1215.84,
            NOEUD_CMP=("1", "DX"),
        ),
        _F(
            REFERENCE="ANALYTIQUE",
            RESULTAT=MODE_CO2,
            NOM_CHAM="REAC_NODA",
            GROUP_NO="P1",
            NOM_CMP="DX",
            VALE_CALC=-1.21584000e03,
            VALE_REFE=-1215.84,
            NOEUD_CMP=("4", "DX"),
        ),
        _F(
            REFERENCE="ANALYTIQUE",
            RESULTAT=MODE_CO2,
            NOM_CHAM="REAC_NODA",
            GROUP_NO="P4",
            NOM_CMP="DX",
            VALE_CALC=-1.31716000e03,
            VALE_REFE=-1317.16,
            NOEUD_CMP=("4", "DX"),
        ),
    )
)


#
# DUPLICATION DU CALCUL POUR COUVERTURE DE CODE
#

MODE_CB2 = MODE_STATIQUE(
    MATR_RIGI=MATRRIGI,
    MATR_MASS=MATRMASS,
    CARA_ELEM=CARA,
    PSEUDO_MODE=_F(
        GROUP_NO="P1P4",
        # AVEC_CMP = ( 'DX', ),
        SANS_CMP=("DY", "DZ")
        # TOUT_CMP = 'OUI'
    ),
)
IMPR_RESU(FORMAT="RESULTAT", RESU=_F(RESULTAT=MODE_CB2))


#
MODE_CB2 = CALC_CHAMP(reuse=MODE_CB2, RESULTAT=MODE_CB2, CONTRAINTE=("SIEF_ELGA", "EFGE_ELNO"))


MODE_CB2 = CALC_CHAMP(reuse=MODE_CB2, RESULTAT=MODE_CB2, FORCE="FORC_NODA")

MODE_CB2 = CALC_CHAMP(reuse=MODE_CB2, RESULTAT=MODE_CB2, FORCE="REAC_NODA")

#
TEST_RESU(
    RESU=(
        _F(
            REFERENCE="ANALYTIQUE",
            RESULTAT=MODE_CB2,
            NOM_CHAM="DEPL",
            GROUP_NO="P2",
            NOM_CMP="DX",
            VALE_CALC=0.013171600,
            VALE_REFE=0.013169999999999999,
            NOEUD_CMP=("1", "DX"),
        ),
        _F(
            REFERENCE="ANALYTIQUE",
            RESULTAT=MODE_CB2,
            NOM_CHAM="DEPL",
            GROUP_NO="P3",
            NOM_CMP="DX",
            VALE_CALC=0.012158400,
            VALE_REFE=0.012160000000000001,
            NOEUD_CMP=("1", "DX"),
        ),
        _F(
            REFERENCE="ANALYTIQUE",
            RESULTAT=MODE_CB2,
            NOM_CHAM="DEPL",
            GROUP_NO="P2",
            NOM_CMP="DX",
            VALE_CALC=0.012158400,
            VALE_REFE=0.012160000000000001,
            NOEUD_CMP=("4", "DX"),
        ),
        _F(
            REFERENCE="ANALYTIQUE",
            RESULTAT=MODE_CB2,
            NOM_CHAM="DEPL",
            GROUP_NO="P3",
            NOM_CMP="DX",
            VALE_CALC=0.013171600,
            VALE_REFE=0.013169999999999999,
            NOEUD_CMP=("4", "DX"),
        ),
    )
)

# Ajout de ce test pour discriminer les cas SANS_CMP = ('DY',),
# SANS_CMP = ('DZ',) et TOUT_CMP = 'OUI'
TEST_RESU(
    RESU=(
        _F(
            RESULTAT=MODE_CB2,
            NOM_CHAM="DEPL",
            GROUP_NO="P2",
            NOM_CMP="DX",
            VALE_CALC=0.012158400,
            NUME_ORDRE=2,
        ),
    )
)


#
# -------------------------------
#
#   DEFINITION DU SEISME
#
# --------------------------------
#
F0 = 1.0

#
F1 = 1.5

F2 = 2.0

OMEGA1 = 2 * pi * F1

OMEGA2 = 2 * pi * F2

A1 = 0.5

A2 = 0.5

#
L_FREQ = DEFI_LIST_REEL(DEBUT=0.01, INTERVALLE=_F(JUSQU_A=20.0, PAS=0.002))

#
FSRO1 = FORMULE(
    VALE="""
A1*(2*pi*FREQ)**2/abs(OMEGA1**2-(2*pi*FREQ)**2)""",
    A1=A1,
    OMEGA1=OMEGA1,
    NOM_PARA="FREQ",
)
#
FSRO2 = FORMULE(
    VALE="""
A2*(2*pi*FREQ)**2/abs(OMEGA2**2-(2*pi*FREQ)**2)""",
    A2=A2,
    OMEGA2=OMEGA2,
    NOM_PARA="FREQ",
)
#

SRO1 = CALC_FONC_INTERP(
    FONCTION=FSRO1,
    NOM_PARA="FREQ",
    LIST_PARA=L_FREQ,
    PROL_DROITE="LINEAIRE",
    PROL_GAUCHE="LINEAIRE",
    INTERPOL="LOG",
)

SRO2 = CALC_FONC_INTERP(
    FONCTION=FSRO2,
    NOM_PARA="FREQ",
    LIST_PARA=L_FREQ,
    PROL_DROITE="LINEAIRE",
    PROL_GAUCHE="LINEAIRE",
    INTERPOL="LOG",
)

#
SPEC1 = DEFI_NAPPE(
    NOM_PARA="AMOR", INTERPOL=("LIN", "LOG"), PARA=(0.00, 0.05), FONCTION=(SRO1, SRO1)
)

SPEC2 = DEFI_NAPPE(
    NOM_PARA="AMOR", INTERPOL=("LIN", "LOG"), PARA=(0.00, 0.05), FONCTION=(SRO2, SRO2)
)

#
L_TEMPS = DEFI_LIST_REEL(DEBUT=0.0, INTERVALLE=_F(JUSQU_A=30.0, PAS=0.01))

#
# ------------------------------------------------------------------------------------------
#       3.3.4 : Réponse globale sur base modale complète (calcul multi-appui décorrélé)

# Calcul no. 1 : COMB_MODE=’SRSS’
MUQASRS = COMB_SISM_MODAL(
    MODE_MECA=MODES,
    AMOR_REDUIT=0.0,
    TYPE_ANALYSE="MULT_APPUI",
    APPUIS=(_F(NOM="A_1", GROUP_NO=("P1")), _F(NOM="A_4", GROUP_NO=("P4"))),
    SPECTRE=(
        _F(NOM_APPUI="A_1", LIST_AXE=("X"), SPEC_OSCI=SPEC1, ECHELLE=1.0, CORR_FREQ="NON"),
        _F(NOM_APPUI="A_4", LIST_AXE=("X"), SPEC_OSCI=SPEC2, ECHELLE=1.0, CORR_FREQ="NON"),
    ),
    GROUP_APPUI_CORRELE=(_F(LIST_APPUI=("A_1"), NOM="GA_1"), _F(LIST_APPUI=("A_4"), NOM="GA_4")),
    COMB_MODE=_F(TYPE="SRSS"),
    OPTION=("DEPL", "SIEF_ELGA", "EFGE_ELNO", "FORC_NODA", "REAC_NODA"),
    TYPE_RESU=_F(TYPE="VALE_TOTA"),
)
#
TEST_RESU(
    RESU=(
        _F(
            REFERENCE="ANALYTIQUE",
            RESULTAT=MUQASRS,
            NOM_CHAM="DEPL",
            GROUP_NO="P2",
            NOM_CMP="DX",
            VALE_CALC=5.65129788e-03,
            VALE_REFE=5.6499999999999996e-3,
            NOM_CAS="TOTA",
        ),
        _F(
            REFERENCE="ANALYTIQUE",
            RESULTAT=MUQASRS,
            NOM_CHAM="DEPL",
            GROUP_NO="P3",
            NOM_CMP="DX",
            VALE_CALC=5.65129788e-03,
            VALE_REFE=5.6499999999999996e-3,
            NOM_CAS="TOTA",
        ),
    )
)

#
TEST_RESU(
    RESU=(
        _F(
            REFERENCE="ANALYTIQUE",
            RESULTAT=MUQASRS,
            NOM_CHAM="REAC_NODA",
            GROUP_NO="P1",
            NOM_CMP="DX",
            VALE_CALC=5.65129788e02,
            VALE_REFE=5.6512973681333403e02,
            NOM_CAS="TOTA",
        ),
        _F(
            REFERENCE="ANALYTIQUE",
            RESULTAT=MUQASRS,
            NOM_CHAM="REAC_NODA",
            GROUP_NO="P4",
            NOM_CMP="DX",
            VALE_CALC=5.65129788e02,
            VALE_REFE=5.6512973681333403e02,
            NOM_CAS="TOTA",
        ),
    )
)

# Calcul no. 2 : COMB_MODE=ABS
MUQAABS = COMB_SISM_MODAL(
    MODE_MECA=MODES,
    AMOR_REDUIT=0.0,
    TYPE_ANALYSE="MULT_APPUI",
    APPUIS=(_F(NOM="A_1", GROUP_NO=("P1")), _F(NOM="A_4", GROUP_NO=("P4"))),
    SPECTRE=(
        _F(NOM_APPUI="A_1", LIST_AXE=("X"), SPEC_OSCI=SPEC1, ECHELLE=1.0, CORR_FREQ="NON"),
        _F(NOM_APPUI="A_4", LIST_AXE=("X"), SPEC_OSCI=SPEC2, ECHELLE=1.0, CORR_FREQ="NON"),
    ),
    GROUP_APPUI_CORRELE=(_F(LIST_APPUI=("A_1"), NOM="GA_1"), _F(LIST_APPUI=("A_4"), NOM="GA_4")),
    COMB_MODE=_F(TYPE="ABS"),
    OPTION=("DEPL", "SIEF_ELGA", "EFGE_ELNO", "FORC_NODA", "REAC_NODA"),
    TYPE_RESU=_F(TYPE="VALE_TOTA"),
)

#
TEST_RESU(
    RESU=(
        _F(
            REFERENCE="ANALYTIQUE",
            RESULTAT=MUQAABS,
            NOM_CHAM="DEPL",
            GROUP_NO="P2",
            NOM_CMP="DX",
            VALE_CALC=6.47688578e-03,
            VALE_REFE=6.476e-3,
            NOM_CAS="TOTA",
        ),
        _F(
            REFERENCE="ANALYTIQUE",
            RESULTAT=MUQAABS,
            NOM_CHAM="DEPL",
            GROUP_NO="P3",
            NOM_CMP="DX",
            VALE_CALC=6.47688578e-03,
            VALE_REFE=6.476e-3,
            NOM_CAS="TOTA",
        ),
    )
)

#
TEST_RESU(
    RESU=(
        _F(
            REFERENCE="ANALYTIQUE",
            RESULTAT=MUQAABS,
            NOM_CHAM="REAC_NODA",
            GROUP_NO="P1",
            NOM_CMP="DX",
            VALE_CALC=6.47688578e02,
            VALE_REFE=6.4768847673871358e02,
            NOM_CAS="TOTA",
        ),
        _F(
            REFERENCE="ANALYTIQUE",
            RESULTAT=MUQAABS,
            NOM_CHAM="REAC_NODA",
            GROUP_NO="P4",
            NOM_CMP="DX",
            VALE_CALC=6.47688578e02,
            VALE_REFE=6.4768847673871358e02,
            NOM_CAS="TOTA",
        ),
    )
)


# Calcul no. 3 : COMB_MODE=DPC
MUQADPC = COMB_SISM_MODAL(
    MODE_MECA=MODES,
    AMOR_REDUIT=0.0,
    TYPE_ANALYSE="MULT_APPUI",
    APPUIS=(_F(NOM="A_1", GROUP_NO=("P1")), _F(NOM="A_4", GROUP_NO=("P4"))),
    SPECTRE=(
        _F(NOM_APPUI="A_1", LIST_AXE=("X"), SPEC_OSCI=SPEC1, ECHELLE=1.0, CORR_FREQ="NON"),
        _F(NOM_APPUI="A_4", LIST_AXE=("X"), SPEC_OSCI=SPEC2, ECHELLE=1.0, CORR_FREQ="NON"),
    ),
    GROUP_APPUI_CORRELE=(_F(LIST_APPUI=("A_1"), NOM="GA_1"), _F(LIST_APPUI=("A_4"), NOM="GA_4")),
    COMB_MODE=_F(TYPE="DPC"),
    OPTION=("DEPL", "SIEF_ELGA", "EFGE_ELNO", "FORC_NODA", "REAC_NODA"),
    TYPE_RESU=_F(TYPE="VALE_TOTA"),
)

TEST_RESU(
    RESU=(
        _F(
            REFERENCE="ANALYTIQUE",
            RESULTAT=MUQADPC,
            NOM_CHAM="DEPL",
            GROUP_NO="P2",
            NOM_CMP="DX",
            VALE_CALC=5.65129788e-03,
            VALE_REFE=5.6499999999999996e-3,
            NOM_CAS="TOTA",
        ),
        _F(
            REFERENCE="ANALYTIQUE",
            RESULTAT=MUQADPC,
            NOM_CHAM="DEPL",
            GROUP_NO="P3",
            NOM_CMP="DX",
            VALE_CALC=5.65129788e-03,
            VALE_REFE=5.6499999999999996e-3,
            NOM_CAS="TOTA",
        ),
    )
)

#
TEST_RESU(
    RESU=(
        _F(
            REFERENCE="ANALYTIQUE",
            RESULTAT=MUQADPC,
            NOM_CHAM="REAC_NODA",
            GROUP_NO="P1",
            NOM_CMP="DX",
            VALE_CALC=5.65129788e02,
            VALE_REFE=5.6512973681333403e02,
            NOM_CAS="TOTA",
        ),
        _F(
            REFERENCE="ANALYTIQUE",
            RESULTAT=MUQADPC,
            NOM_CHAM="REAC_NODA",
            GROUP_NO="P4",
            NOM_CMP="DX",
            VALE_CALC=5.65129788e02,
            VALE_REFE=5.6512973681333403e02,
            NOM_CAS="TOTA",
        ),
    )
)

# Calcul no. 4 : COMB_MODE=CQC
MUQACQC = COMB_SISM_MODAL(
    MODE_MECA=MODES,
    AMOR_REDUIT=0.05,
    TYPE_ANALYSE="MULT_APPUI",
    APPUIS=(_F(NOM="A_1", GROUP_NO=("P1")), _F(NOM="A_4", GROUP_NO=("P4"))),
    SPECTRE=(
        _F(NOM_APPUI="A_1", LIST_AXE=("X"), SPEC_OSCI=SPEC1, ECHELLE=1.0, CORR_FREQ="NON"),
        _F(NOM_APPUI="A_4", LIST_AXE=("X"), SPEC_OSCI=SPEC2, ECHELLE=1.0, CORR_FREQ="NON"),
    ),
    GROUP_APPUI_CORRELE=(_F(LIST_APPUI=("A_1"), NOM="GA_1"), _F(LIST_APPUI=("A_4"), NOM="GA_4")),
    COMB_MODE=_F(TYPE="CQC"),
    OPTION=("DEPL", "SIEF_ELGA", "EFGE_ELNO", "FORC_NODA", "REAC_NODA"),
    TYPE_RESU=_F(TYPE="VALE_TOTA"),
)

#
TEST_RESU(
    RESU=(
        _F(
            REFERENCE="ANALYTIQUE",
            RESULTAT=MUQACQC,
            NOM_CHAM="DEPL",
            GROUP_NO="P2",
            NOM_CMP="DX",
            VALE_CALC=5.65049549e-03,
            VALE_REFE=5.6499999999999996e-3,
            NOM_CAS="TOTA",
        ),
        _F(
            REFERENCE="ANALYTIQUE",
            RESULTAT=MUQACQC,
            NOM_CHAM="DEPL",
            GROUP_NO="P3",
            NOM_CMP="DX",
            VALE_CALC=5.65210016e-03,
            VALE_REFE=5.6515699999999999e-3,
            NOM_CAS="TOTA",
        ),
    )
)

#
TEST_RESU(
    RESU=(
        _F(
            REFERENCE="ANALYTIQUE",
            RESULTAT=MUQACQC,
            NOM_CHAM="REAC_NODA",
            GROUP_NO="P1",
            NOM_CMP="DX",
            VALE_CALC=5.65049549e02,
            VALE_REFE=5.6504949848205490e02,
            NOM_CAS="TOTA",
        ),
        _F(
            REFERENCE="ANALYTIQUE",
            RESULTAT=MUQACQC,
            NOM_CHAM="REAC_NODA",
            GROUP_NO="P4",
            NOM_CMP="DX",
            VALE_CALC=5.65210016e02,
            VALE_REFE=5.6520996375382026e02,
            NOM_CAS="TOTA",
        ),
    )
)

# Calcul no. 5 : COMB_MODE=DSC
MUQADSC = COMB_SISM_MODAL(
    MODE_MECA=MODES,
    AMOR_REDUIT=0.05,
    TYPE_ANALYSE="MULT_APPUI",
    # MASS_INER=MAS,
    APPUIS=(_F(NOM="A_1", GROUP_NO=("P1")), _F(NOM="A_4", GROUP_NO=("P4"))),
    SPECTRE=(
        _F(NOM_APPUI="A_1", LIST_AXE=("X"), SPEC_OSCI=SPEC1, ECHELLE=1.0, CORR_FREQ="NON"),
        _F(NOM_APPUI="A_4", LIST_AXE=("X"), SPEC_OSCI=SPEC2, ECHELLE=1.0, CORR_FREQ="NON"),
    ),
    GROUP_APPUI_CORRELE=(_F(LIST_APPUI=("A_1"), NOM="GA_1"), _F(LIST_APPUI=("A_4"), NOM="GA_4")),
    COMB_MODE=_F(TYPE="DSC", DUREE=15.0),
    OPTION=("DEPL", "SIEF_ELGA", "EFGE_ELNO", "FORC_NODA", "REAC_NODA"),
    TYPE_RESU=_F(TYPE="VALE_TOTA"),
)

#
TEST_RESU(
    RESU=(
        _F(
            REFERENCE="ANALYTIQUE",
            RESULTAT=MUQADSC,
            NOM_CHAM="DEPL",
            GROUP_NO="P2",
            NOM_CMP="DX",
            VALE_CALC=5.64969441e-03,
            VALE_REFE=5.6490000000000004e-3,
            NOM_CAS="TOTA",
        ),
        _F(
            REFERENCE="ANALYTIQUE",
            RESULTAT=MUQADSC,
            NOM_CHAM="DEPL",
            GROUP_NO="P3",
            NOM_CMP="DX",
            VALE_CALC=5.65290090e-03,
            VALE_REFE=5.6521000000000002e-3,
            NOM_CAS="TOTA",
        ),
    )
)

#
TEST_RESU(
    RESU=(
        _F(
            REFERENCE="ANALYTIQUE",
            RESULTAT=MUQADSC,
            NOM_CHAM="REAC_NODA",
            GROUP_NO="P1",
            NOM_CMP="DX",
            VALE_CALC=5.64969410e02,
            VALE_REFE=5.6496935953324066e02,
            NOM_CAS="TOTA",
        ),
        _F(
            REFERENCE="ANALYTIQUE",
            RESULTAT=MUQADSC,
            NOM_CHAM="REAC_NODA",
            GROUP_NO="P4",
            NOM_CMP="DX",
            VALE_CALC=5.65290122e02,
            VALE_REFE=5.6529006859312176e02,
            NOM_CAS="TOTA",
        ),
    )
)


# Calcul no. 6 : COMB_MODE=NRC_DSA
# Nouvelle méthode : NRC_DSA  = DSC avec les réponses modales en valeur absolue
MUQA_NRC_DSA = COMB_SISM_MODAL(
    MODE_MECA=MODES,
    AMOR_REDUIT=0.05,
    TYPE_ANALYSE="MULT_APPUI",
    # MASS_INER=MAS,
    APPUIS=(_F(NOM="A_1", GROUP_NO=("P1")), _F(NOM="A_4", GROUP_NO=("P4"))),
    SPECTRE=(
        _F(NOM_APPUI="A_1", LIST_AXE=("X"), SPEC_OSCI=SPEC1, ECHELLE=1.0, CORR_FREQ="NON"),
        _F(NOM_APPUI="A_4", LIST_AXE=("X"), SPEC_OSCI=SPEC2, ECHELLE=1.0, CORR_FREQ="NON"),
    ),
    GROUP_APPUI_CORRELE=(_F(LIST_APPUI=("A_1"), NOM="GA_1"), _F(LIST_APPUI=("A_4"), NOM="GA_4")),
    COMB_MODE=_F(TYPE="NRC_DSA", DUREE=15.0),
    OPTION=("DEPL", "SIEF_ELGA", "EFGE_ELNO", "FORC_NODA", "REAC_NODA"),
    TYPE_RESU=_F(TYPE="VALE_TOTA"),
)


TEST_RESU(
    RESU=(
        _F(
            REFERENCE="ANALYTIQUE",
            RESULTAT=MUQA_NRC_DSA,
            NOM_CHAM="DEPL",
            GROUP_NO="P2",
            NOM_CMP="DX",
            VALE_CALC=5.67485121e-03,
            VALE_REFE=5.6748506752841727e-03,
            NOM_CAS="TOTA",
        ),
        _F(
            REFERENCE="ANALYTIQUE",
            RESULTAT=MUQA_NRC_DSA,
            NOM_CHAM="DEPL",
            GROUP_NO="P3",
            NOM_CMP="DX",
            VALE_CALC=5.67485121e-03,
            VALE_REFE=5.6748506752841727e-03,
            NOM_CAS="TOTA",
        ),
    )
)

#
TEST_RESU(
    RESU=(
        _F(
            REFERENCE="ANALYTIQUE",
            RESULTAT=MUQA_NRC_DSA,
            NOM_CHAM="REAC_NODA",
            GROUP_NO="P1",
            NOM_CMP="DX",
            VALE_CALC=5.67485121e02,
            VALE_REFE=5.6748506752841718e02,
            NOM_CAS="TOTA",
        ),
        _F(
            REFERENCE="ANALYTIQUE",
            RESULTAT=MUQA_NRC_DSA,
            NOM_CHAM="REAC_NODA",
            GROUP_NO="P4",
            NOM_CMP="DX",
            VALE_CALC=5.67485121e02,
            VALE_REFE=5.6748506752841718e02,
            NOM_CAS="TOTA",
        ),
    )
)

# Calcul no. 7 : COMB_MODE=NRC_GROUPING
# Nouvelle méthode : NRC_GROUPING , très proche de DPC ?
MUQA_NRC_GROUPING = COMB_SISM_MODAL(
    MODE_MECA=MODES,
    AMOR_REDUIT=0.0,
    TYPE_ANALYSE="MULT_APPUI",
    APPUIS=(_F(NOM="A_1", GROUP_NO=("P1")), _F(NOM="A_4", GROUP_NO=("P4"))),
    SPECTRE=(
        _F(NOM_APPUI="A_1", LIST_AXE=("X"), SPEC_OSCI=SPEC1, ECHELLE=1.0, CORR_FREQ="NON"),
        _F(NOM_APPUI="A_4", LIST_AXE=("X"), SPEC_OSCI=SPEC2, ECHELLE=1.0, CORR_FREQ="NON"),
    ),
    GROUP_APPUI_CORRELE=(_F(LIST_APPUI=("A_1"), NOM="GA_1"), _F(LIST_APPUI=("A_4"), NOM="GA_4")),
    COMB_MODE=_F(TYPE="NRC_GROUPING"),
    OPTION=("DEPL", "SIEF_ELGA", "EFGE_ELNO", "FORC_NODA", "REAC_NODA"),
    TYPE_RESU=_F(TYPE="VALE_TOTA"),
)


#
TEST_RESU(
    RESU=(
        _F(
            REFERENCE="ANALYTIQUE",
            RESULTAT=MUQA_NRC_GROUPING,
            NOM_CHAM="DEPL",
            GROUP_NO="P2",
            NOM_CMP="DX",
            VALE_CALC=5.65129788e-03,
            VALE_REFE=5.6512973681333420e-03,
            NOM_CAS="TOTA",
        ),
        _F(
            REFERENCE="ANALYTIQUE",
            RESULTAT=MUQA_NRC_GROUPING,
            NOM_CHAM="DEPL",
            GROUP_NO="P3",
            NOM_CMP="DX",
            VALE_CALC=5.65129788e-03,
            VALE_REFE=5.6512973681333402e-03,
            NOM_CAS="TOTA",
        ),
    )
)

#
TEST_RESU(
    RESU=(
        _F(
            REFERENCE="ANALYTIQUE",
            RESULTAT=MUQA_NRC_GROUPING,
            NOM_CHAM="REAC_NODA",
            GROUP_NO="P1",
            NOM_CMP="DX",
            VALE_CALC=5.65129788e02,
            VALE_REFE=5.6512973681333403e02,
            NOM_CAS="TOTA",
        ),
        _F(
            REFERENCE="ANALYTIQUE",
            RESULTAT=MUQA_NRC_GROUPING,
            NOM_CHAM="REAC_NODA",
            GROUP_NO="P4",
            NOM_CMP="DX",
            VALE_CALC=5.65129788e02,
            VALE_REFE=5.6512973681333403e02,
            NOM_CAS="TOTA",
        ),
    )
)

# -------------------------------------------------------------------------------------------------
# Test CUMUL_INTER : Cummulation des réponses entre les groupes d'appuis (DEFAULT = 'QUAD')
#
# Calcul no. 8 : COMB_MODE=SRSS, CUMUL_INTER='LINE'
MUQA_SRSS_LINE = COMB_SISM_MODAL(
    MODE_MECA=MODES,
    AMOR_REDUIT=0.0,
    TYPE_ANALYSE="MULT_APPUI",
    APPUIS=(_F(NOM="A_1", GROUP_NO=("P1")), _F(NOM="A_4", GROUP_NO=("P4"))),
    SPECTRE=(
        _F(NOM_APPUI="A_1", LIST_AXE=("X"), SPEC_OSCI=SPEC1, ECHELLE=1.0, CORR_FREQ="NON"),
        _F(NOM_APPUI="A_4", LIST_AXE=("X"), SPEC_OSCI=SPEC2, ECHELLE=1.0, CORR_FREQ="NON"),
    ),
    GROUP_APPUI_CORRELE=(_F(LIST_APPUI=("A_1"), NOM="GA_1"), _F(LIST_APPUI=("A_4"), NOM="GA_4")),
    COMB_MODE=_F(TYPE="SRSS"),
    CUMUL_INTER="LINE",
    OPTION=("DEPL", "SIEF_ELGA", "EFGE_ELNO", "FORC_NODA", "REAC_NODA"),
    TYPE_RESU=_F(TYPE="VALE_TOTA"),
)


#
TEST_RESU(
    RESU=(
        _F(
            REFERENCE="ANALYTIQUE",
            RESULTAT=MUQA_SRSS_LINE,
            NOM_CHAM="DEPL",
            GROUP_NO="P2",
            NOM_CMP="DX",
            VALE_CALC=7.54862877e-03,
            VALE_REFE=7.5486277753660166e-03,
            NOM_CAS="TOTA",
        ),
        _F(
            REFERENCE="ANALYTIQUE",
            RESULTAT=MUQA_SRSS_LINE,
            NOM_CHAM="DEPL",
            GROUP_NO="P3",
            NOM_CMP="DX",
            VALE_CALC=7.54862877e-03,
            VALE_REFE=7.5486277753660149e-03,
            NOM_CAS="TOTA",
        ),
    )
)

#
TEST_RESU(
    RESU=(
        _F(
            REFERENCE="ANALYTIQUE",
            RESULTAT=MUQA_SRSS_LINE,
            NOM_CHAM="REAC_NODA",
            GROUP_NO="P1",
            NOM_CMP="DX",
            VALE_CALC=7.54862877e02,
            VALE_REFE=7.5486277753660170e02,
            NOM_CAS="TOTA",
        ),
        _F(
            REFERENCE="ANALYTIQUE",
            RESULTAT=MUQA_SRSS_LINE,
            NOM_CHAM="REAC_NODA",
            GROUP_NO="P4",
            NOM_CMP="DX",
            VALE_CALC=7.54862877e02,
            VALE_REFE=7.5486277753660147e02,
            NOM_CAS="TOTA",
        ),
    )
)

# Calcul no. 9 : COMB_MODE=SRSS, CUMUL_INTER='ABS'
MUQA_SRSS_ABS = COMB_SISM_MODAL(
    MODE_MECA=MODES,
    AMOR_REDUIT=0.0,
    TYPE_ANALYSE="MULT_APPUI",
    APPUIS=(_F(NOM="A_1", GROUP_NO=("P1")), _F(NOM="A_4", GROUP_NO=("P4"))),
    SPECTRE=(
        _F(NOM_APPUI="A_1", LIST_AXE=("X"), SPEC_OSCI=SPEC1, ECHELLE=1.0, CORR_FREQ="NON"),
        _F(NOM_APPUI="A_4", LIST_AXE=("X"), SPEC_OSCI=SPEC2, ECHELLE=1.0, CORR_FREQ="NON"),
    ),
    GROUP_APPUI_CORRELE=(_F(LIST_APPUI=("A_1"), NOM="GA_1"), _F(LIST_APPUI=("A_4"), NOM="GA_4")),
    COMB_MODE=_F(TYPE="SRSS"),
    CUMUL_INTER="ABS",
    OPTION=("DEPL", "SIEF_ELGA", "EFGE_ELNO", "FORC_NODA", "REAC_NODA"),
    TYPE_RESU=_F(TYPE="VALE_TOTA"),
)


#
TEST_RESU(
    RESU=(
        _F(
            REFERENCE="ANALYTIQUE",
            RESULTAT=MUQA_SRSS_ABS,
            NOM_CHAM="DEPL",
            GROUP_NO="P2",
            NOM_CMP="DX",
            VALE_CALC=7.54862877e-03,
            VALE_REFE=7.5486277753660166e-03,
            NOM_CAS="TOTA",
        ),
        _F(
            REFERENCE="ANALYTIQUE",
            RESULTAT=MUQA_SRSS_ABS,
            NOM_CHAM="DEPL",
            GROUP_NO="P3",
            NOM_CMP="DX",
            VALE_CALC=7.54862877e-03,
            VALE_REFE=7.5486277753660149e-03,
            NOM_CAS="TOTA",
        ),
    )
)

#
TEST_RESU(
    RESU=(
        _F(
            REFERENCE="ANALYTIQUE",
            RESULTAT=MUQA_SRSS_ABS,
            NOM_CHAM="REAC_NODA",
            GROUP_NO="P1",
            NOM_CMP="DX",
            VALE_CALC=7.54862877e02,
            VALE_REFE=7.5486277753660170e02,
            NOM_CAS="TOTA",
        ),
        _F(
            REFERENCE="ANALYTIQUE",
            RESULTAT=MUQA_SRSS_ABS,
            NOM_CHAM="REAC_NODA",
            GROUP_NO="P4",
            NOM_CMP="DX",
            VALE_CALC=7.54862877e02,
            VALE_REFE=7.5486277753660147e02,
            NOM_CAS="TOTA",
        ),
    )
)

#
# --------------------------------------
#
FIN()
