# coding=utf-8
# --------------------------------------------------------------------
# Copyright (C) 1991 - 2025 - EDF R&D - www.code-aster.org
# This file is part of code_aster.
#
# code_aster is free software: you can redistribute it and/or modify
# it under the terms of the GNU General Public License as published by
# the Free Software Foundation, either version 3 of the License, or
# (at your option) any later version.
#
# code_aster is distributed in the hope that it will be useful,
# but WITHOUT ANY WARRANTY; without even the implied warranty of
# MERCHANTABILITY or FITNESS FOR A PARTICULAR PURPOSE.  See the
# GNU General Public License for more details.
#
# You should have received a copy of the GNU General Public License
# along with code_aster.  If not, see <http://www.gnu.org/licenses/>.
# --------------------------------------------------------------------

#
#    K1       K2      K3
# # <><><>M2<><><>M3<><><> #
# NO1    NO2     NO3     NO4
# SPEC1                  SPEC2
# DDS1                   DDS2
##############################


DEBUT(CODE="OUI", DEBUG=_F(SDVERI="OUI"))
M2 = 10.0

M3 = 10.0

K1 = 1000.0

K2 = 1000.0

K3 = 10000.0


# PARAMETRES EXCITATIONS MULTI APPUIS SRO+DDS
# NO1
A1_F1 = 7.0

A1_F2 = 5.0

DDS1 = -0.04


# NO4
A2_F1 = 12.0

A2_F2 = 6.0

DDS2 = 0.06


MAILLAG0 = LIRE_MAILLAGE(FORMAT="ASTER")


MAILLAGE = CREA_MAILLAGE(
    MAILLAGE=MAILLAG0,
    CREA_POI1=(
        _F(NOM_GROUP_MA="MASSES", GROUP_NO="MASSES"),
        _F(NOM_GROUP_MA="NO2", GROUP_NO="NO2"),
        _F(NOM_GROUP_MA="NO3", GROUP_NO="NO3"),
    ),
)

MODELE = AFFE_MODELE(
    MAILLAGE=MAILLAGE,
    AFFE=(
        _F(GROUP_MA="RESSORT", PHENOMENE="MECANIQUE", MODELISATION="DIS_T"),
        _F(GROUP_MA="MASSES", PHENOMENE="MECANIQUE", MODELISATION="DIS_T"),
    ),
)

#

CARA_ELE = AFFE_CARA_ELEM(
    MODELE=MODELE,
    DISCRET=(
        _F(REPERE="GLOBAL", CARA="K_T_D_L", GROUP_MA="ELN1", VALE=(K1, 1.0, K1)),
        _F(
            REPERE="GLOBAL",
            CARA="M_T_L",
            GROUP_MA="ELN1",
            VALE=(
                0.0,
                0.0,
                0.0,
                0.0,
                0.0,
                0.0,
                0.0,
                0.0,
                0.0,
                0.0,
                0.0,
                0.0,
                0.0,
                0.0,
                0.0,
                0.0,
                0.0,
                0.0,
                0.0,
                0.0,
                0.0,
            ),
        ),
        _F(REPERE="GLOBAL", CARA="K_T_D_L", GROUP_MA="ELN2", VALE=(K2, 1.0, K2)),
        _F(
            REPERE="GLOBAL",
            CARA="M_T_L",
            GROUP_MA="ELN2",
            VALE=(
                0.0,
                0.0,
                0.0,
                0.0,
                0.0,
                0.0,
                0.0,
                0.0,
                0.0,
                0.0,
                0.0,
                0.0,
                0.0,
                0.0,
                0.0,
                0.0,
                0.0,
                0.0,
                0.0,
                0.0,
                0.0,
            ),
        ),
        _F(REPERE="GLOBAL", CARA="K_T_D_L", GROUP_MA="ELN3", VALE=(K3, 1.0, K3)),
        _F(
            REPERE="GLOBAL",
            CARA="M_T_L",
            GROUP_MA="ELN3",
            VALE=(
                0.0,
                0.0,
                0.0,
                0.0,
                0.0,
                0.0,
                0.0,
                0.0,
                0.0,
                0.0,
                0.0,
                0.0,
                0.0,
                0.0,
                0.0,
                0.0,
                0.0,
                0.0,
                0.0,
                0.0,
                0.0,
            ),
        ),
        _F(CARA="M_T_D_N", GROUP_MA="NO2", VALE=M2),
        _F(CARA="M_T_D_N", GROUP_MA="NO3", VALE=M3),
    ),
)

MAT = DEFI_MATERIAU(ELAS=_F(E=1.6e11, NU=0.3, RHO=1.3e04))

#

CHAMPMAT = AFFE_MATERIAU(MAILLAGE=MAILLAGE, AFFE=_F(TOUT="OUI", MATER=MAT))

#

CON_LIM = AFFE_CHAR_MECA(
    MODELE=MODELE,
    DDL_IMPO=(
        _F(GROUP_NO="ENCASTRE", DX=0.0, DY=0.0, DZ=0.0),
        _F(GROUP_NO="MASSES", DY=0.0, DZ=0.0),
    ),
)

#

ASSEMBLAGE(
    MODELE=MODELE,
    CHAM_MATER=CHAMPMAT,
    CARA_ELEM=CARA_ELE,
    CHARGE=CON_LIM,
    NUME_DDL=CO("NUMEDDL"),
    MATR_ASSE=(
        _F(MATRICE=CO("RIGIDITE"), OPTION="RIGI_MECA"),
        _F(MATRICE=CO("MASSE"), OPTION="MASS_MECA"),
    ),
)

#
# CALCUL DES MODES AVEC BLOCAGE DES ANCRAGES:
# ---------------------------------------------

MASSINER = POST_ELEM(
    MASS_INER=_F(TOUT="OUI"), MODELE=MODELE, CHAM_MATER=CHAMPMAT, CARA_ELEM=CARA_ELE
)

MODES = CALC_MODES(
    MATR_RIGI=RIGIDITE,
    CARA_ELEM=CARA_ELE,
    CALC_FREQ=_F(NMAX_FREQ=3),
    MATR_MASS=MASSE,
    SOLVEUR_MODAL=_F(METHODE="SORENSEN"),
)

IMPR_RESU(FORMAT="RESULTAT", RESU=(_F(RESULTAT=MODES, TOUT_PARA="OUI")))
#
MODES = NORM_MODE(reuse=MODES, MODE=MODES, NORME="MASS_GENE")

#

MODES = CALC_CHAMP(reuse=MODES, RESULTAT=MODES, CONTRAINTE=("SIEF_ELGA", "EFGE_ELNO"))


MODES = CALC_CHAMP(reuse=MODES, RESULTAT=MODES, FORCE=("FORC_NODA", "REAC_NODA"))

# TESTS DES FREQUENCES PROPRES
# REF : ANALYTIQUE
# -------------------------------------------------

TEST_RESU(
    RESU=(
        _F(
            PARA="FREQ",
            NUME_MODE=1,
            REFERENCE="ANALYTIQUE",
            RESULTAT=MODES,
            VALE_CALC=2.188150561,
            VALE_REFE=2.1881499999999998,
            PRECISION=1.0e-3,
        ),
        _F(
            PARA="FREQ",
            NUME_MODE=2,
            REFERENCE="ANALYTIQUE",
            RESULTAT=MODES,
            VALE_CALC=5.304845125,
            VALE_REFE=5.3048500000000001,
            PRECISION=1.0e-3,
        ),
    )
)

#
# CALCUL DES MODES STATIQUES AUX POINTS D'ANCRAGE:
# -------------------------------------------------

MODE_STA = MODE_STATIQUE(
    CARA_ELEM=CARA_ELE, MATR_RIGI=RIGIDITE, MATR_MASS=MASSE, MODE_STAT=_F(TOUT="OUI", AVEC_CMP="DX")
)

MODE_STA = CALC_CHAMP(reuse=MODE_STA, RESULTAT=MODE_STA, CONTRAINTE=("SIEF_ELGA", "EFGE_ELNO"))


MODE_STA = CALC_CHAMP(reuse=MODE_STA, RESULTAT=MODE_STA, FORCE=("FORC_NODA", "REAC_NODA"))

# -------------------------------------------------
# -------------------------------------------------
# ANALYSE SPECTRALE :
# CALCUL DE LA REPONSE GLOBALE
# COMPOSANTES INERTIELLE (SRO ACCE) ET ENTRAINEMENT (DDS)
# CUMULEES LORS DU CALCUL DES REPONSES PAR APPUI
# -------------------------------------------------
# -------------------------------------------------
# ACC X NO1

ACCX1 = DEFI_FONCTION(
    NOM_PARA="FREQ",
    VALE=(2.18815, A1_F1, 5.30485, A1_F2),
    INTERPOL="LOG",
    PROL_DROITE="CONSTANT",
    PROL_GAUCHE="CONSTANT",
)

SPEX1 = DEFI_NAPPE(
    NOM_PARA="AMOR",
    PARA=(0.0, 1.0),
    FONCTION=(ACCX1, ACCX1),
    INTERPOL=("LIN", "LOG"),
    PROL_DROITE="CONSTANT",
    PROL_GAUCHE="CONSTANT",
    INFO=2,
)

# ACC X NO4

ACCX2 = DEFI_FONCTION(
    NOM_PARA="FREQ",
    VALE=(2.18815, A2_F1, 5.30485, A2_F2),
    INTERPOL="LOG",
    PROL_DROITE="CONSTANT",
    PROL_GAUCHE="CONSTANT",
)

SPEX2 = DEFI_NAPPE(
    NOM_PARA="AMOR",
    PARA=(0.0, 1.0),
    FONCTION=(ACCX2, ACCX2),
    INTERPOL=("LIN", "LOG"),
    PROL_DROITE="CONSTANT",
    PROL_GAUCHE="CONSTANT",
    INFO=2,
)

# ------------------------------------------
# RGQBC
# REPONSE GLOBALE SUR BASE MODALE COMPLETE
# MODES 1 2
# GROUP_APPUI QUAD
# ------------------------------------------

RGQBC = COMB_SISM_MODAL(
    MODE_MECA=MODES,
    NUME_MODE=(1, 2),
    AMOR_REDUIT=0.05,
    TYPE_ANALYSE="MULT_APPUI",
    APPUIS=(_F(NOM="A_NO1", GROUP_NO="NO1"), _F(NOM="A_NO4", GROUP_NO="NO4")),
    SPECTRE=(
        _F(NOM_APPUI="A_NO1", LIST_AXE=("X"), SPEC_OSCI=SPEX1, ECHELLE=1.0),
        _F(NOM_APPUI="A_NO4", LIST_AXE=("X"), SPEC_OSCI=SPEX2, ECHELLE=1.0),
    ),
    COMB_MODE=_F(TYPE="SRSS"),
    DEPL_MULT_APPUI=(
        _F(MODE_STAT=MODE_STA, NOM_APPUI="A_NO1", DX=DDS1),
        _F(MODE_STAT=MODE_STA, NOM_APPUI="A_NO4", DX=DDS2),
    ),
    OPTION=("DEPL", "REAC_NODA"),
    GROUP_APPUI_CORRELE=(
        _F(LIST_APPUI=("A_NO1"), NOM="GAPPUI_1"),
        _F(LIST_APPUI=("A_NO4"), NOM="GAPPUI_2"),
    ),
    COMB_DDS_CORRELE="LINE",
    TYPE_RESU=_F(TYPE="VALE_TOTA"),
)

IMPR_RESU(FORMAT="RESULTAT", RESU=(_F(RESULTAT=RGQBC, TOUT_PARA="OUI")))


# TESTS DES DEPLACEMENTS
# ------------------------------------------

TEST_RESU(
    RESU=(
        _F(
            REFERENCE="ANALYTIQUE",
            RESULTAT=RGQBC,
            NOM_CAS="TOTA",
            NOM_CHAM="DEPL",
            GROUP_NO="NO1",
            NOM_CMP="DX",
            VALE_CALC=0.040000000,
            VALE_REFE=0.040000000000000001,
            PRECISION=1.0e-3,
        ),
        _F(
            REFERENCE="ANALYTIQUE",
            RESULTAT=RGQBC,
            NOM_CAS="TOTA",
            NOM_CHAM="DEPL",
            GROUP_NO="NO2",
            NOM_CMP="DX",
            VALE_CALC=0.054381984,
            VALE_REFE=0.054382,
            PRECISION=1.0e-3,
        ),
        _F(
            REFERENCE="ANALYTIQUE",
            RESULTAT=RGQBC,
            NOM_CAS="TOTA",
            NOM_CHAM="DEPL",
            GROUP_NO="NO3",
            NOM_CMP="DX",
            VALE_CALC=0.057554447,
            VALE_REFE=0.057554399999999999,
            PRECISION=1.0e-3,
        ),
        _F(
            REFERENCE="ANALYTIQUE",
            RESULTAT=RGQBC,
            NOM_CAS="TOTA",
            NOM_CHAM="DEPL",
            GROUP_NO="NO4",
            NOM_CMP="DX",
            VALE_CALC=0.060000000,
            VALE_REFE=0.059999999999999998,
            PRECISION=1.0e-3,
        ),
    )
)

# TESTS DES REACTIONS NODALES AUX APPUIS
# ------------------------------------------

TEST_RESU(
    RESU=(
        _F(
            REFERENCE="ANALYTIQUE",
            RESULTAT=RGQBC,
            NOM_CAS="TOTA",
            NOM_CHAM="REAC_NODA",
            GROUP_NO="NO1",
            NOM_CMP="DX",
            VALE_CALC=53.676901146,
            VALE_REFE=53.676900000000003,
            PRECISION=1.0e-3,
        ),
        _F(
            REFERENCE="ANALYTIQUE",
            RESULTAT=RGQBC,
            NOM_CAS="TOTA",
            NOM_CHAM="REAC_NODA",
            GROUP_NO="NO4",
            NOM_CMP="DX",
            VALE_CALC=74.412010712,
            VALE_REFE=74.412000000000006,
            PRECISION=1.0e-3,
        ),
    )
)

# ------------------------------------------
# RGQBI
# REPONSE GLOBALE SUR BASE MODALE INCOMPLETE
# SANS CORRECTION STATIQUE
# MODES 1
# GROUP_APPUI QUAD
# ------------------------------------------

RGQBI = COMB_SISM_MODAL(
    MODE_MECA=MODES,
    NUME_MODE=1,
    AMOR_REDUIT=0.05,
    TYPE_ANALYSE="MULT_APPUI",
    APPUIS=(_F(NOM="A_NO1", GROUP_NO=("NO1")), _F(NOM="A_NO4", GROUP_NO=("NO4"))),
    SPECTRE=(
        _F(NOM_APPUI="A_NO1", LIST_AXE=("X"), SPEC_OSCI=SPEX1, ECHELLE=1.0),
        _F(NOM_APPUI="A_NO4", LIST_AXE=("X"), SPEC_OSCI=SPEX2, ECHELLE=1.0),
    ),
    COMB_MODE=_F(TYPE="SRSS"),
    DEPL_MULT_APPUI=(
        _F(MODE_STAT=MODE_STA, NOM_APPUI="A_NO1", DX=DDS1),
        _F(MODE_STAT=MODE_STA, NOM_APPUI="A_NO4", DX=DDS2),
    ),
    GROUP_APPUI_CORRELE=(
        _F(LIST_APPUI=("A_NO1"), NOM="GAPPUI_1"),
        _F(LIST_APPUI=("A_NO4"), NOM="GAPPUI_2"),
    ),
    COMB_DDS_CORRELE="LINE",
    OPTION=("DEPL", "REAC_NODA"),
    TYPE_RESU=_F(TYPE="VALE_TOTA"),
)

# TESTS DES DEPLACEMENTS
# ------------------------------------------

TEST_RESU(
    RESU=(
        _F(
            REFERENCE="ANALYTIQUE",
            RESULTAT=RGQBI,
            NOM_CAS="TOTA",
            NOM_CHAM="DEPL",
            GROUP_NO="NO1",
            NOM_CMP="DX",
            VALE_CALC=0.040000000,
            VALE_REFE=0.040000000000000001,
            PRECISION=1.0e-3,
        ),
        _F(
            REFERENCE="ANALYTIQUE",
            RESULTAT=RGQBI,
            NOM_CAS="TOTA",
            NOM_CHAM="DEPL",
            GROUP_NO="NO2",
            NOM_CMP="DX",
            VALE_CALC=0.054379428,
            VALE_REFE=0.054379400000000001,
            PRECISION=1.0e-3,
        ),
        _F(
            REFERENCE="ANALYTIQUE",
            RESULTAT=RGQBI,
            NOM_CAS="TOTA",
            NOM_CHAM="DEPL",
            GROUP_NO="NO3",
            NOM_CMP="DX",
            VALE_CALC=0.057353646,
            VALE_REFE=0.057353599999999998,
            PRECISION=1.0e-3,
        ),
        _F(
            REFERENCE="ANALYTIQUE",
            RESULTAT=RGQBI,
            NOM_CAS="TOTA",
            NOM_CHAM="DEPL",
            GROUP_NO="NO4",
            NOM_CMP="DX",
            VALE_CALC=0.060000000,
            VALE_REFE=0.059999999999999998,
            PRECISION=1.0e-3,
        ),
    )
)

# TESTS DES REACTIONS NODALES AUX APPUIS
# ------------------------------------------

TEST_RESU(
    RESU=(
        _F(
            REFERENCE="ANALYTIQUE",
            RESULTAT=RGQBI,
            NOM_CAS="TOTA",
            NOM_CHAM="REAC_NODA",
            GROUP_NO="NO1",
            NOM_CMP="DX",
            VALE_CALC=53.674311187,
            VALE_REFE=53.674300000000002,
            PRECISION=1.0e-3,
        ),
        _F(
            REFERENCE="ANALYTIQUE",
            RESULTAT=RGQBI,
            NOM_CAS="TOTA",
            NOM_CHAM="REAC_NODA",
            GROUP_NO="NO4",
            NOM_CMP="DX",
            VALE_CALC=56.831236839,
            VALE_REFE=56.831200000000003,
            PRECISION=1.0e-3,
        ),
    )
)

# ---------------------------------------------------
# CALCUL PSEUDO MODES POUR LA CORRECTION STATIQUE
# ACCELEARATION UNITAIRE PAR APPUI
# ---------------------------------------------------

MODEC = MODE_STATIQUE(
    CARA_ELEM=CARA_ELE,
    MATR_RIGI=RIGIDITE,
    MATR_MASS=MASSE,
    PSEUDO_MODE=_F(GROUP_NO=("NO1", "NO4"), AVEC_CMP="DX"),
)

MODEC = CALC_CHAMP(reuse=MODEC, RESULTAT=MODEC, CONTRAINTE=("SIEF_ELGA", "EFGE_ELNO"))


MODEC = CALC_CHAMP(reuse=MODEC, RESULTAT=MODEC, FORCE="REAC_NODA")

# ------------------------------------------
# RGQBIC
# REPONSE GLOBALE SUR BASE INCOMPLETE
# AVEC CORRECTION STATIQUE
# MODES 1
# GROUP_APPUI QUAD
# ------------------------------------------

RGQBIC = COMB_SISM_MODAL(
    MODE_MECA=MODES,
    NUME_MODE=1,
    PSEUDO_MODE=MODEC,
    MODE_CORR="OUI",
    AMOR_REDUIT=0.05,
    TYPE_ANALYSE="MULT_APPUI",
    APPUIS=(_F(NOM="A_NO1", GROUP_NO=("NO1")), _F(NOM="A_NO4", GROUP_NO=("NO4"))),
    SPECTRE=(
        _F(NOM_APPUI="A_NO1", LIST_AXE=("X"), SPEC_OSCI=SPEX1, ECHELLE=1.0),
        _F(NOM_APPUI="A_NO4", LIST_AXE=("X"), SPEC_OSCI=SPEX2, ECHELLE=1.0),
    ),
    COMB_MODE=_F(TYPE="SRSS"),
    DEPL_MULT_APPUI=(
        _F(MODE_STAT=MODE_STA, NOM_APPUI="A_NO1", DX=DDS1),
        _F(MODE_STAT=MODE_STA, NOM_APPUI="A_NO4", DX=DDS2),
    ),
    GROUP_APPUI_CORRELE=(
        _F(LIST_APPUI=("A_NO1"), NOM="GAPPUI_1"),
        _F(LIST_APPUI=("A_NO4"), NOM="GAPPUI_2"),
    ),
    COMB_DDS_CORRELE="LINE",
    OPTION=("DEPL", "REAC_NODA"),
    TYPE_RESU=_F(TYPE="VALE_TOTA"),
)

# TESTS DES DEPLACEMENTS
# ------------------------------------------

TEST_RESU(
    RESU=(
        _F(
            NOM_CAS="TOTA",
            REFERENCE="ANALYTIQUE",
            RESULTAT=RGQBIC,
            NOM_CHAM="DEPL",
            GROUP_NO="NO1",
            NOM_CMP="DX",
            VALE_CALC=0.040000000,
            VALE_REFE=0.040000000000000001,
            PRECISION=1.0e-3,
        ),
        _F(
            NOM_CAS="TOTA",
            REFERENCE="ANALYTIQUE",
            RESULTAT=RGQBIC,
            NOM_CHAM="DEPL",
            GROUP_NO="NO2",
            NOM_CMP="DX",
            VALE_CALC=0.054389652,
            VALE_REFE=0.054389658,
            PRECISION=1.0e-3,
        ),
        _F(
            NOM_CAS="TOTA",
            REFERENCE="ANALYTIQUE",
            RESULTAT=RGQBIC,
            NOM_CHAM="DEPL",
            GROUP_NO="NO3",
            NOM_CMP="DX",
            VALE_CALC=0.058152652,
            VALE_REFE=0.058152652999999999,
            PRECISION=1.0e-3,
        ),
        _F(
            NOM_CAS="TOTA",
            REFERENCE="ANALYTIQUE",
            RESULTAT=RGQBIC,
            NOM_CHAM="DEPL",
            GROUP_NO="NO4",
            NOM_CMP="DX",
            VALE_CALC=0.060000000,
            VALE_REFE=0.059999999999999998,
            PRECISION=1.0e-3,
        ),
    )
)

# TESTS DES REACTIONS NODALES AUX APPUIS
# ------------------------------------------

TEST_RESU(
    RESU=(
        _F(
            NOM_CAS="TOTA",
            REFERENCE="ANALYTIQUE",
            RESULTAT=RGQBIC,
            NOM_CHAM="REAC_NODA",
            GROUP_NO="NO1",
            NOM_CMP="DX",
            VALE_CALC=53.684669814,
            VALE_REFE=53.684675499999997,
            PRECISION=1.0e-3,
        ),
        _F(
            NOM_CAS="TOTA",
            REFERENCE="ANALYTIQUE",
            RESULTAT=RGQBIC,
            NOM_CHAM="REAC_NODA",
            GROUP_NO="NO4",
            NOM_CMP="DX",
            VALE_CALC=111.619039954,
            VALE_REFE=111.61906,
            PRECISION=1.0e-3,
        ),
    )
)

# TESTS D IMPRESSIONS
# ----------------------

IMPR_RESU(FORMAT="RESULTAT", RESU=_F(RESULTAT=RGQBIC))

TES_R = POST_RELEVE_T(
    ACTION=(
        _F(
            NOM_CAS="TOTA",
            RESULTAT=RGQBIC,
            INTITULE="DEPLACEMENT_N1",
            NOM_CHAM=("DEPL",),
            GROUP_NO="NO1",
            NOM_CMP="DX",
            OPERATION="EXTRACTION",
        ),
        _F(
            NOM_CAS="TOTA",
            RESULTAT=RGQBIC,
            INTITULE="DEPLACEMENT_N2",
            NOM_CHAM=("DEPL",),
            GROUP_NO="NO2",
            NOM_CMP="DX",
            OPERATION="EXTRACTION",
        ),
        _F(
            NOM_CAS="TOTA",
            RESULTAT=RGQBIC,
            INTITULE="DEPLACEMENT_N3",
            NOM_CHAM=("DEPL",),
            GROUP_NO="NO3",
            NOM_CMP="DX",
            OPERATION="EXTRACTION",
        ),
        _F(
            NOM_CAS="TOTA",
            RESULTAT=RGQBIC,
            INTITULE="DEPLACEMENT_N4",
            NOM_CHAM=("DEPL",),
            GROUP_NO="NO4",
            NOM_CMP="DX",
            OPERATION="EXTRACTION",
        ),
        _F(
            NOM_CAS="TOTA",
            RESULTAT=RGQBIC,
            INTITULE="FORCE_N1",
            NOM_CHAM=("REAC_NODA",),
            GROUP_NO="NO1",
            NOM_CMP="DX",
            OPERATION="EXTRACTION",
        ),
        _F(
            NOM_CAS="TOTA",
            RESULTAT=RGQBIC,
            INTITULE="FORCE_N2",
            NOM_CHAM=("REAC_NODA",),
            GROUP_NO="NO2",
            NOM_CMP="DX",
            OPERATION="EXTRACTION",
        ),
        _F(
            NOM_CAS="TOTA",
            RESULTAT=RGQBIC,
            INTITULE="FORCE_N3",
            NOM_CHAM=("REAC_NODA",),
            GROUP_NO="NO3",
            NOM_CMP="DX",
            OPERATION="EXTRACTION",
        ),
        _F(
            NOM_CAS="TOTA",
            RESULTAT=RGQBIC,
            INTITULE="FORCE_N4",
            NOM_CHAM=("REAC_NODA",),
            GROUP_NO="NO4",
            NOM_CMP="DX",
            OPERATION="EXTRACTION",
        ),
    )
)

IMPR_TABLE(TABLE=TES_R)

# -------------------------------------------------
# -------------------------------------------------
# ANALYSE SPECTRALE :
# PARTITION DES COMPOSANTES PRIMAIRE ET SECONDAIRE
# DE LA REPONSE
# COMPOSANTE PRIMAIRE INERTIELLE (SRO ACCE)
# COMPOSANTE SECONDAIRE ENTRAINEMENT (DDS)
# -------------------------------------------------
# -------------------------------------------------
# ------------------------------------------
# PQQBC
# REPONSE PRIMAIRE SUR BASE MODALE COMPLETE
#     MODES 1 2
#     GROUP_APPUI QUAD
# REPONSE SECONDAIRE
#     COMB_DEPL_APPUI QUAD
# ------------------------------------------

PQQBC = COMB_SISM_MODAL(
    MODE_MECA=MODES,
    NUME_MODE=(1, 2),
    AMOR_REDUIT=0.05,
    TYPE_ANALYSE="MULT_APPUI",
    APPUIS=(_F(NOM="A_NO1", GROUP_NO=("NO1")), _F(NOM="A_NO4", GROUP_NO=("NO4"))),
    SPECTRE=(
        _F(NOM_APPUI="A_NO1", LIST_AXE=("X"), SPEC_OSCI=SPEX1, ECHELLE=1.0),
        _F(NOM_APPUI="A_NO4", LIST_AXE=("X"), SPEC_OSCI=SPEX2, ECHELLE=1.0),
    ),
    COMB_MODE=_F(TYPE="SRSS"),
    DEPL_MULT_APPUI=(
        _F(MODE_STAT=MODE_STA, NOM_APPUI="A_NO1", DX=DDS1),
        _F(MODE_STAT=MODE_STA, NOM_APPUI="A_NO4", DX=DDS2),
    ),
    GROUP_APPUI_CORRELE=(
        _F(LIST_APPUI=("A_NO1"), NOM="GAPPUI_1"),
        _F(LIST_APPUI=("A_NO4"), NOM="GAPPUI_2"),
    ),
    COMB_DDS_CORRELE="LINE",
    OPTION=("DEPL", "REAC_NODA"),
    TYPE_RESU=(_F(TYPE="VALE_TOTA"), _F(TYPE="VALE_DDS"), _F(TYPE="VALE_INER")),
)

# TEST COMPONSANTE PRIMAIRE
# ------------------------------------------
# DEPLACEMENT
# ----------------------

TEST_RESU(
    RESU=(
        _F(
            NOM_CAS="PART_INER",
            REFERENCE="ANALYTIQUE",
            RESULTAT=PQQBC,
            NOM_CHAM="DEPL",
            GROUP_NO="NO1",
            NOM_CMP="DX",
            VALE_CALC=0.0,
            VALE_REFE=0.0,
            CRITERE="ABSOLU",
            PRECISION=0.0,
        ),
        _F(
            NOM_CAS="PART_INER",
            REFERENCE="ANALYTIQUE",
            RESULTAT=PQQBC,
            NOM_CHAM="DEPL",
            GROUP_NO="NO2",
            NOM_CMP="DX",
            VALE_CALC=0.041256168,
            VALE_REFE=0.0412562,
            PRECISION=1.0e-3,
        ),
        _F(
            NOM_CAS="PART_INER",
            REFERENCE="ANALYTIQUE",
            RESULTAT=PQQBC,
            NOM_CHAM="DEPL",
            GROUP_NO="NO3",
            NOM_CMP="DX",
            VALE_CALC=6.60152181e-03,
            VALE_REFE=6.6015199999999996e-3,
            PRECISION=1.0e-3,
        ),
        _F(
            NOM_CAS="PART_INER",
            REFERENCE="ANALYTIQUE",
            RESULTAT=PQQBC,
            NOM_CHAM="DEPL",
            GROUP_NO="NO4",
            NOM_CMP="DX",
            VALE_CALC=0.0,
            VALE_REFE=0.0,
            CRITERE="ABSOLU",
            PRECISION=0.0,
        ),
    )
)

# REACTIONS AUX APPUIS
# ----------------------

TEST_RESU(
    RESU=(
        _F(
            NOM_CAS="PART_INER",
            REFERENCE="ANALYTIQUE",
            RESULTAT=PQQBC,
            NOM_CHAM="REAC_NODA",
            GROUP_NO="NO1",
            NOM_CMP="DX",
            VALE_CALC=41.256167959,
            VALE_REFE=41.2562,
            PRECISION=1.0e-3,
        ),
        _F(
            NOM_CAS="PART_INER",
            REFERENCE="ANALYTIQUE",
            RESULTAT=PQQBC,
            NOM_CHAM="REAC_NODA",
            GROUP_NO="NO4",
            NOM_CMP="DX",
            VALE_CALC=66.015218066,
            VALE_REFE=66.015199999999993,
            PRECISION=1.0e-3,
        ),
    )
)

# TEST COMPONSANTE SECONDAIRE
# ------------------------------------------
# DEPLACEMENT
# ----------------------

TEST_RESU(
    RESU=(
        _F(
            NOM_CAS="PART_DDS",
            REFERENCE="ANALYTIQUE",
            RESULTAT=PQQBC,
            NOM_CHAM="DEPL",
            GROUP_NO="NO1",
            NOM_CMP="DX",
            VALE_CALC=0.040000000,
            VALE_REFE=0.040000000000000001,
            PRECISION=1.0e-3,
        ),
        _F(
            NOM_CAS="PART_DDS",
            REFERENCE="ANALYTIQUE",
            RESULTAT=PQQBC,
            NOM_CHAM="DEPL",
            GROUP_NO="NO2",
            NOM_CMP="DX",
            VALE_CALC=0.035430620,
            VALE_REFE=0.0354306,
            PRECISION=1.0e-3,
        ),
        _F(
            NOM_CAS="PART_DDS",
            REFERENCE="ANALYTIQUE",
            RESULTAT=PQQBC,
            NOM_CHAM="DEPL",
            GROUP_NO="NO3",
            NOM_CMP="DX",
            VALE_CALC=0.057174594,
            VALE_REFE=0.057174599999999999,
            PRECISION=1.0e-3,
        ),
        _F(
            NOM_CAS="PART_DDS",
            REFERENCE="ANALYTIQUE",
            RESULTAT=PQQBC,
            NOM_CHAM="DEPL",
            GROUP_NO="NO4",
            NOM_CMP="DX",
            VALE_CALC=0.060000000,
            VALE_REFE=0.059999999999999998,
            PRECISION=1.0e-3,
        ),
    )
)

# REACTIONS AUX APPUIS
# ----------------------

TEST_RESU(
    RESU=(
        _F(
            NOM_CAS="PART_DDS",
            REFERENCE="ANALYTIQUE",
            RESULTAT=PQQBC,
            NOM_CHAM="REAC_NODA",
            GROUP_NO="NO1",
            NOM_CMP="DX",
            VALE_CALC=34.338583576,
            VALE_REFE=34.3386,
            PRECISION=1.0e-3,
        ),
        _F(
            NOM_CAS="PART_DDS",
            REFERENCE="ANALYTIQUE",
            RESULTAT=PQQBC,
            NOM_CHAM="REAC_NODA",
            GROUP_NO="NO4",
            NOM_CMP="DX",
            VALE_CALC=34.338583576,
            VALE_REFE=34.3386,
            PRECISION=1.0e-3,
        ),
    )
)

# TESTS D IMPRESSIONS
# ----------------------

IMPR_RESU(FORMAT="RESULTAT", RESU=_F(RESULTAT=PQQBC))

TES_R0 = POST_RELEVE_T(
    ACTION=(
        _F(
            RESULTAT=PQQBC,
            INTITULE="DEPLACEMENT_N1",
            NOM_CHAM=("DEPL",),
            GROUP_NO="NO1",
            NOM_CMP="DX",
            OPERATION="EXTRACTION",
        ),
        _F(
            RESULTAT=PQQBC,
            INTITULE="DEPLACEMENT_N2",
            NOM_CHAM=("DEPL",),
            GROUP_NO="NO2",
            NOM_CMP="DX",
            OPERATION="EXTRACTION",
        ),
        _F(
            RESULTAT=PQQBC,
            INTITULE="DEPLACEMENT_N3",
            NOM_CHAM=("DEPL",),
            GROUP_NO="NO3",
            NOM_CMP="DX",
            OPERATION="EXTRACTION",
        ),
        _F(
            RESULTAT=PQQBC,
            INTITULE="DEPLACEMENT_N4",
            NOM_CHAM=("DEPL",),
            GROUP_NO="NO4",
            NOM_CMP="DX",
            OPERATION="EXTRACTION",
        ),
        _F(
            RESULTAT=PQQBC,
            INTITULE="FORCE_N1",
            NOM_CHAM=("REAC_NODA",),
            GROUP_NO="NO1",
            NOM_CMP="DX",
            OPERATION="EXTRACTION",
        ),
        _F(
            RESULTAT=PQQBC,
            INTITULE="FORCE_N2",
            NOM_CHAM=("REAC_NODA",),
            GROUP_NO="NO2",
            NOM_CMP="DX",
            OPERATION="EXTRACTION",
        ),
        _F(
            RESULTAT=PQQBC,
            INTITULE="FORCE_N3",
            NOM_CHAM=("REAC_NODA",),
            GROUP_NO="NO3",
            NOM_CMP="DX",
            OPERATION="EXTRACTION",
        ),
        _F(
            RESULTAT=PQQBC,
            INTITULE="FORCE_N4",
            NOM_CHAM=("REAC_NODA",),
            GROUP_NO="NO4",
            NOM_CMP="DX",
            OPERATION="EXTRACTION",
        ),
    )
)

IMPR_TABLE(TABLE=TES_R0)

FIN()
