# coding=utf-8
# --------------------------------------------------------------------
# Copyright (C) 1991 - 2025 - EDF R&D - www.code-aster.org
# This file is part of code_aster.
#
# code_aster is free software: you can redistribute it and/or modify
# it under the terms of the GNU General Public License as published by
# the Free Software Foundation, either version 3 of the License, or
# (at your option) any later version.
#
# code_aster is distributed in the hope that it will be useful,
# but WITHOUT ANY WARRANTY; without even the implied warranty of
# MERCHANTABILITY or FITNESS FOR A PARTICULAR PURPOSE.  See the
# GNU General Public License for more details.
#
# You should have received a copy of the GNU General Public License
# along with code_aster.  If not, see <http://www.gnu.org/licenses/>.
# --------------------------------------------------------------------

# TEST DE LA GENERATION DES FONCTIONS ALEATOIRE D INTERSPECTRE
# CONNU, TEST DU CALCUL D UNE MATRICE INTERSPECTRALE
# TEST DE LA REPONSE SPECTRALE D UNE STRUCTURE POUTRE
# MODELE POUTRE
# MAILLAGE : ELEMENT SEGMENTS A 2 NOEUDS
# UNITES   : NEWTON , METRE , SECONDE (N,M,S)
# ----------------------------------------------------------------
#

DEBUT(CODE="OUI", DEBUG=_F(SDVERI="OUI"))

#
POUTRE = LIRE_MAILLAGE(FORMAT="MED")

POUTRE = DEFI_GROUP(
    reuse=POUTRE,
    MAILLAGE=POUTRE,
    CREA_GROUP_NO=(
        _F(NOM="N51", NOEUD="N51"),
        _F(NOM="N76", NOEUD="N76"),
        _F(NOM="N1", NOEUD="N1"),
        _F(NOM="N70", NOEUD="N70"),
    ),
)

POUTRE = DEFI_GROUP(reuse=POUTRE, MAILLAGE=POUTRE, CREA_GROUP_MA=_F(NOM="TOUT", TOUT="OUI"))

#

MODEL = AFFE_MODELE(
    MAILLAGE=POUTRE, AFFE=_F(TOUT="OUI", PHENOMENE="MECANIQUE", MODELISATION="POU_D_T")
)

#
MATER1 = DEFI_MATERIAU(ELAS=_F(E=2.0e11, NU=0.3, RHO=7900.0))

#
CHMAT = AFFE_MATERIAU(MAILLAGE=POUTRE, AFFE=_F(TOUT="OUI", MATER=MATER1))

#
CHCAR = AFFE_CARA_ELEM(
    MODELE=MODEL,
    POUTRE=_F(GROUP_MA="TOUT", SECTION="CERCLE", CARA=("R", "EP"), VALE=(0.005, 0.0005)),
)

#
CHARGE1 = AFFE_CHAR_MECA(
    MODELE=MODEL,
    DDL_IMPO=(
        _F(TOUT="OUI", DRX=0.0, DRY=0.0, DX=0.0, DZ=0.0),
        _F(GROUP_NO="N1", DY=0.0, DZ=0.0, DRY=0.0, DRZ=0.0),
    ),
)

#
#
FORCE1 = AFFE_CHAR_MECA(MODELE=MODEL, FORCE_NODALE=_F(GROUP_NO="N51", FY=1.0))

FORCE2 = AFFE_CHAR_MECA(MODELE=MODEL, FORCE_NODALE=_F(GROUP_NO="N51", MZ=1.0))

#
MELA = CALC_MATR_ELEM(
    MODELE=MODEL, CHARGE=CHARGE1, CHAM_MATER=CHMAT, CARA_ELEM=CHCAR, OPTION="RIGI_MECA"
)

#
MELB = CALC_MATR_ELEM(
    MODELE=MODEL, CHARGE=CHARGE1, CHAM_MATER=CHMAT, CARA_ELEM=CHCAR, OPTION="MASS_MECA"
)

#
VECTEL1 = CALC_VECT_ELEM(CHARGE=FORCE1, OPTION="CHAR_MECA")

VECTEL2 = CALC_VECT_ELEM(CHARGE=FORCE2, OPTION="CHAR_MECA")

#
NUMERO = NUME_DDL(MATR_RIGI=MELA)

#
A = ASSE_MATRICE(MATR_ELEM=MELA, NUME_DDL=NUMERO)

#
B = ASSE_MATRICE(MATR_ELEM=MELB, NUME_DDL=NUMERO)

#
VECTAS1 = ASSE_VECTEUR(VECT_ELEM=VECTEL1, NUME_DDL=NUMERO)

VECTAS2 = ASSE_VECTEUR(VECT_ELEM=VECTEL2, NUME_DDL=NUMERO)

#
MODES = CALC_MODES(MATR_RIGI=A, MATR_MASS=B)


#

SPECT1 = DEFI_FONCTION(
    NOM_PARA="FREQ",
    VALE_C=(
        0.0000000000000e00,
        0.1000000000000e00,
        0.0000000000000e00,
        0.1000000000000e01,
        0.9999748817887e-01,
        0.0000000000000e00,
        0.2000000000000e01,
        0.9998763155941e-01,
        0.0000000000000e00,
        0.3000000000000e01,
        0.9996857740070e-01,
        0.0000000000000e00,
        0.4000000000000e01,
        0.9993912019744e-01,
        0.0000000000000e00,
        0.5000000000000e01,
        0.9989833089653e-01,
        0.0000000000000e00,
        0.6000000000000e01,
        0.9984544754401e-01,
# ... 1483 like lines cut
    ),
)

SPECT3 = DEFI_FONCTION(
    NOM_PARA="FREQ",
    VALE_C=(
        0.0000000000000e00,
        0.2500000000000e-01,
        0.0000000000000e00,
        0.1000000000000e01,
        0.2499937204472e-01,
        0.0000000000000e00,
        0.2000000000000e01,
        0.2499690788985e-01,
        0.0000000000000e00,
        0.3000000000000e01,
        0.2499214435018e-01,
        0.0000000000000e00,
        0.4000000000000e01,
        0.2498478004936e-01,
        0.0000000000000e00,
        0.5000000000000e01,
        0.2497458272413e-01,
        0.0000000000000e00,
        0.6000000000000e01,
        0.2496136188600e-01,
# ... 1483 like lines cut
    ),
)

SPECT2 = DEFI_FONCTION(
    NOM_PARA="FREQ",
    VALE_C=(
        0.0000000000000e00,
        0.8000000000000e-02,
        0.0000000000000e00,
        0.1000000000000e01,
        0.7936718236274e-02,
        0.1002640786786e-02,
        0.2000000000000e01,
        0.7747706848112e-02,
        0.1989273226793e-02,
        0.3000000000000e01,
        0.7435874492474e-02,
        0.2944071317802e-02,
        0.4000000000000e01,
        0.7006185289332e-02,
        0.3851683432594e-02,
        0.5000000000000e01,
        0.6465555486271e-02,
        0.4697501671718e-02,
        0.6000000000000e01,
        0.5822735480433e-02,
# ... 1483 like lines cut
    ),
)

#

AUTOSPC1 = LIRE_INTE_SPEC(
    UNITE=19, FORMAT_C="MODULE_PHASE", PROL_DROITE="EXCLU", PROL_GAUCHE="EXCLU", INTERPOL="LIN"
)


AUTOSPC2 = LIRE_INTE_SPEC(
    UNITE=19, FORMAT_C="REEL_IMAG", PROL_DROITE="LINEAIRE", PROL_GAUCHE="LINEAIRE", INTERPOL="LIN"
)

#
# GENERATION DES EFFORTS ALEATOIRES

INT1 = DEFI_INTE_SPEC(
    DIMENSION=2,
    PAR_FONCTION=(
        _F(NUME_ORDRE_I=1, NUME_ORDRE_J=1, FONCTION=SPECT1),
        _F(NUME_ORDRE_I=1, NUME_ORDRE_J=2, FONCTION=SPECT2),
        _F(NUME_ORDRE_I=2, NUME_ORDRE_J=2, FONCTION=SPECT3),
    ),
)


VECT1 = GENE_FONC_ALEA(
    INTE_SPEC=INT1, FREQ_INIT=0.0, FREQ_FIN=500.0, NB_TIRAGE=10, NB_POIN=512, INFO=2
)

#
#

FONCT1 = RECU_FONCTION(
    INTE_SPEC=VECT1, NUME_ORDRE=1, INTERPOL="LIN", PROL_DROITE="CONSTANT", PROL_GAUCHE="EXCLU"
)
#

FONCT2 = RECU_FONCTION(
    INTE_SPEC=VECT1, NUME_ORDRE=2, INTERPOL="LIN", PROL_DROITE="CONSTANT", PROL_GAUCHE="EXCLU"
)

#

INTERS = CALC_INTE_SPEC(
    INST_INIT=0.0,
    INST_FIN=10.22,
    DUREE_ANALYSE=1.022,
    DUREE_DECALAGE=1.022,
    NB_POIN=2 * 512,
    FONCTION=(FONCT1, FONCT2),
)

#

REP1 = RECU_FONCTION(INTE_SPEC=INTERS, NUME_ORDRE_I=1)

REP2 = RECU_FONCTION(INTE_SPEC=INTERS, NUME_ORDRE_I=2)

TEST_FONCTION(
    VALEUR=(
        _F(
            VALE_CALC=0.09978293123949,
            VALE_REFE=0.10000000000000001,
            REFERENCE="NON_DEFINI",
            VALE_PARA=2.0,
            PRECISION=0.10000000000000001,
            FONCTION=REP1,
        ),
        _F(
            VALE_CALC=0.02582628020341,
            VALE_REFE=0.025000000000000001,
            REFERENCE="NON_DEFINI",
            VALE_PARA=2.0,
            PRECISION=0.10000000000000001,
            FONCTION=REP2,
        ),
    )
)

##
PROJ_BASE(
    BASE=MODES,
    STOCKAGE="DIAG",
    MATR_ASSE_GENE=(
        _F(MATRICE=CO("MASSEPRO"), MATR_ASSE=B),
        _F(MATRICE=CO("RIGIPROJ"), MATR_ASSE=A),
    ),
    VECT_ASSE_GENE=(
        _F(VECTEUR=CO("EFPROJ1"), VECT_ASSE=VECTAS1, TYPE_VECT="FORC"),
        _F(VECTEUR=CO("EFPROJ2"), VECT_ASSE=VECTAS2, TYPE_VECT="FORC"),
    ),
)

#
CARTE = DEFI_OBSTACLE(TYPE="CERCLE")

#
OBST = DEFI_OBSTACLE(
    TYPE="DISCRET",
    VALE=(
        0.0,
        1.0,
        20.0,
        1.0,
        40.0,
        1.0,
        60.0,
        1.0,
        80.0,
        1.0,
        100.0,
        1.0,
        120.0,
        1.0,
        140.0,
        1.0,
        160.0,
        1.0,
        180.0,
        1.5,
# ... 18 like lines cut
    ),
)

#
DYNAMODE = DYNA_VIBRA(
    TYPE_CALCUL="TRAN",
    BASE_CALCUL="GENE",
    SCHEMA_TEMPS=_F(SCHEMA="DIFF_CENTRE"),
    MATR_MASS=MASSEPRO,
    MATR_RIGI=RIGIPROJ,
    AMOR_MODAL=_F(AMOR_REDUIT=(0.01, 0.01, 0.01, 0.01, 0.01, 0.01, 0.01, 0.01, 0.01, 0.01)),
    EXCIT=(
        _F(VECT_ASSE_GENE=EFPROJ1, FONC_MULT=FONCT1),
        _F(VECT_ASSE_GENE=EFPROJ2, FONC_MULT=FONCT2),
    ),
    INCREMENT=_F(INST_INIT=0.0, INST_FIN=2.0, PAS=3.5e-5),
    ARCHIVAGE=_F(PAS_ARCH=4),
    COMPORTEMENT=(
        _F(
            RELATION="DIS_CHOC",
            GROUP_NO_1="N76",
            OBSTACLE=CARTE,
            ORIG_OBST=(1.0, 0.0, 0.0),
            NORM_OBST=(1.0, 0.0, 0.0),
            JEU=0.0,
            RIGI_NOR=1.0e6,
            RIGI_TAN=0.0,
            FROTTEMENT="COULOMB",
            COULOMB=0.3,
            INTITULE="DIS_CHOC_N76XXXXXXXXXXXX",
        ),
        _F(
            RELATION="DIS_CHOC",
            GROUP_NO_1="N70",
            OBSTACLE=OBST,
            ORIG_OBST=(1.0, 0.0, 0.0),
            NORM_OBST=(1.0, 0.0, 0.0),
            RIGI_NOR=1.0e2,
            RIGI_TAN=0.0,
            FROTTEMENT="COULOMB",
            COULOMB=0.3,
        ),
    ),
)

#

TT = POST_DYNA_MODA_T(
    RESU_GENE=DYNAMODE,
    CHOC=_F(INST_INIT=0.0, INST_FIN=2.0, NB_BLOC=4, SEUIL_FORCE=0.0, DUREE_REPOS=0.0),
)

TEST_TABLE(
    VALE_CALC_K="DIS_CHOC_N76XXXXXXXXXXXX",
    NOM_PARA="INTITULE",
    TABLE=TT,
    FILTRE=(_F(NOM_PARA="CALCUL", VALE_K="DEPL_X"), _F(NOM_PARA="NOEUD", VALE_K="76")),
)

IMPR_TABLE(
    TABLE=TT,
    FILTRE=_F(NOM_PARA="CALCUL", VALE_K="DEPL_X"),
    NOM_PARA=("NOEUD", "MOYEN", "ECART_TYPE", "RMS", "MAXI", "MINI"),
)

IMPR_TABLE(
    TABLE=TT,
    FILTRE=_F(NOM_PARA="CALCUL", VALE_K="DEPL_Y"),
    NOM_PARA=("NOEUD", "MOYEN", "ECART_TYPE", "RMS", "MAXI", "MINI"),
)

IMPR_TABLE(
    TABLE=TT,
    FILTRE=_F(NOM_PARA="CALCUL", VALE_K="DEPL_Z"),
    NOM_PARA=("NOEUD", "MOYEN", "ECART_TYPE", "RMS", "MAXI", "MINI"),
)

IMPR_TABLE(
    TABLE=TT,
    FILTRE=_F(NOM_PARA="CALCUL", VALE_K="DEPL_RADIAL"),
    NOM_PARA=("NOEUD", "MOYEN", "ECART_TYPE", "RMS", "MAXI", "MINI"),
)

IMPR_TABLE(
    TABLE=TT,
    FILTRE=_F(NOM_PARA="CALCUL", VALE_K="DEPL_ANGULAIRE"),
    NOM_PARA=("NOEUD", "MOYEN", "ECART_TYPE", "RMS", "MAXI", "MINI"),
)

IMPR_TABLE(
    TABLE=TT,
    FILTRE=_F(NOM_PARA="CALCUL", VALE_K="FORCE_NORMALE"),
    NOM_PARA=("NOEUD", "MOYEN_T_TOTAL", "MOYEN_T_CHOC", "RMS_T_TOTAL", "RMS_T_CHOC", "MAXI"),
)

IMPR_TABLE(
    TABLE=TT,
    FILTRE=_F(NOM_PARA="CALCUL", VALE_K="FORCE_TANG_1"),
    NOM_PARA=("NOEUD", "MOYEN", "ECART_TYPE", "RMS", "MAXI", "MINI"),
)

IMPR_TABLE(
    TABLE=TT,
    FILTRE=_F(NOM_PARA="CALCUL", VALE_K="FORCE_TANG_2"),
    NOM_PARA=("NOEUD", "MOYEN", "ECART_TYPE", "RMS", "MAXI", "MINI"),
)

IMPR_TABLE(
    TABLE=TT,
    FILTRE=_F(NOM_PARA="CALCUL", VALE_K="STAT_CHOC"),
    NOM_PARA=(
        "NOEUD",
        "NB_CHOC_S",
        "NB_REBON_CHOC",
        "T_CHOC_MOYEN",
        "T_CHOC_MAXI",
        "T_CHOC_MINI",
        "T_REBON_MOYEN",
        "%_T_CHOC",
    ),
)

IMPR_TABLE(
    TABLE=TT, FILTRE=_F(NOM_PARA="CALCUL", VALE_K="PUIS_USURE"), NOM_PARA=("NOEUD", "PUIS_USURE")
)

TEST_TABLE(
    VALE_CALC=0.5,
    NOM_PARA="MOYEN",
    TABLE=TT,
    FILTRE=(_F(NOM_PARA="CALCUL", VALE_K="DEPL_X"), _F(NOM_PARA="NOEUD", VALE_K="76")),
)

# attention : le comportement du generateur de nombres aleatoires
# (module random) a change entre la version 2.2 de python et la
# version 2.3. Les resultats s en trouvent un peu affectes.
TEST_TABLE(
    VALE_CALC=2.6864241591119437e-05,
    NOM_PARA="ECART_TYPE",
    TABLE=TT,
    FILTRE=(_F(NOM_PARA="CALCUL", VALE_K="DEPL_Y"), _F(NOM_PARA="NOEUD", VALE_K="76")),
)

TEST_TABLE(
    VALE_CALC=2.6866698925900486e-05,
    NOM_PARA="RMS",
    TABLE=TT,
    FILTRE=(_F(NOM_PARA="CALCUL", VALE_K="DEPL_RADIAL"), _F(NOM_PARA="NOEUD", VALE_K="76")),
)

TEST_TABLE(
    VALE_CALC=26.866698925900497,
    NOM_PARA="RMS_T_TOTAL",
    TABLE=TT,
    FILTRE=(_F(NOM_PARA="CALCUL", VALE_K="FORCE_NORMALE"), _F(NOM_PARA="NOEUD", VALE_K="76")),
)

TEST_TABLE(
    VALE_CALC=180.0,
    NOM_PARA="MAXI",
    TABLE=TT,
    FILTRE=(_F(NOM_PARA="CALCUL", VALE_K="DEPL_ANGULAIRE"), _F(NOM_PARA="NOEUD", VALE_K="70")),
)

TEST_TABLE(
    CRITERE="ABSOLU",
    VALE_CALC=0.0,
    NOM_PARA="MOYEN",
    TABLE=TT,
    FILTRE=(_F(NOM_PARA="CALCUL", VALE_K="FORCE_TANG_1"), _F(NOM_PARA="NOEUD", VALE_K="76")),
)

TEST_TABLE(
    CRITERE="ABSOLU",
    VALE_CALC=0.0,
    NOM_PARA="ECART_TYPE",
    TABLE=TT,
    FILTRE=(_F(NOM_PARA="CALCUL", VALE_K="FORCE_TANG_2"), _F(NOM_PARA="NOEUD", VALE_K="76")),
)

TEST_TABLE(
    CRITERE="ABSOLU",
    VALE_CALC=0.0,
    NOM_PARA="T_CHOC_MOYEN",
    TABLE=TT,
    FILTRE=(_F(NOM_PARA="CALCUL", VALE_K="STAT_CHOC"), _F(NOM_PARA="NOEUD", VALE_K="70")),
)

TEST_TABLE(
    CRITERE="ABSOLU",
    VALE_CALC=0.0,
    NOM_PARA="PUIS_USURE",
    TABLE=TT,
    FILTRE=(_F(NOM_PARA="CALCUL", VALE_K="PUIS_USURE"), _F(NOM_PARA="NOEUD", VALE_K="70")),
)

#

DEPLY = RECU_FONCTION(
    RESU_GENE=DYNAMODE, NOM_CHAM="DEPL", GROUP_NO="N51", NOM_CMP="DY", INTERPOL="LIN"
)

#

INT2 = CALC_INTE_SPEC(
    INST_INIT=0.0,
    INST_FIN=1.999,
    DUREE_ANALYSE=1.0,
    DUREE_DECALAGE=1.0,
    NB_POIN=2 * 512,
    FONCTION=DEPLY,
)

REP3 = RECU_FONCTION(INTE_SPEC=INT2, NUME_ORDRE_I=1)

TEST_FONCTION(
    VALEUR=_F(
        VALE_CALC=1.703444119384e-07, VALE_PARA=4.2000000000000002, FONCTION=REP3  # 7.390728E-08
    )
)

FIN()
#
