# coding=utf-8
# --------------------------------------------------------------------
# Copyright (C) 1991 - 2025 - EDF R&D - www.code-aster.org
# This file is part of code_aster.
#
# code_aster is free software: you can redistribute it and/or modify
# it under the terms of the GNU General Public License as published by
# the Free Software Foundation, either version 3 of the License, or
# (at your option) any later version.
#
# code_aster is distributed in the hope that it will be useful,
# but WITHOUT ANY WARRANTY; without even the implied warranty of
# MERCHANTABILITY or FITNESS FOR A PARTICULAR PURPOSE.  See the
# GNU General Public License for more details.
#
# You should have received a copy of the GNU General Public License
# along with code_aster.  If not, see <http://www.gnu.org/licenses/>.
# --------------------------------------------------------------------

#####################################################################################
# CODE_ASTER COMMANDS FILE AUTOMATICALLY GENERATED BY SALOME_MECA BEAM MODULE
#####################################################################################
# ----------------------------------------------------------------------------
#    ___  _         _                                     _
#   / _ \(_) _ __  (_) _ __    __ _    /\/\    __ _  ___ | |_   ___  _ __
#  / /_)/| || '_ \ | || '_ \  / _` |  /    \  / _` |/ __|| __| / _ \| '__|
# / ___/ | || |_) || || | | || (_| | / /\/\ \| (_| |\__ \| |_ |  __/| |
# \/     |_|| .__/ |_||_| |_| \__, | \/    \/ \__,_||___/ \__| \___||_|
#           |_|               |___/
#                                                Version 2024.09.16 (7c22691a)
# ----------------------------------------------------------------------------
# Loading case : Spectral method #206
# Date/time    : 2024/10/14 at 17:09
# User         : d71983
# ----------------------------------------------------------------------------
#
DEBUT(CODE="OUI")
#
# MESH AND FE-MODEL DEFINITIONS ##########
MESH = LIRE_MAILLAGE(FORMAT="MED")
MESH = MODI_MAILLAGE(reuse=MESH, MAILLAGE=MESH, ECHELLE=1.0e-3)
#
# Define a group containing all pipes modeled with 1D elements
MESH = DEFI_GROUP(
    reuse=MESH,
    MAILLAGE=MESH,
    CREA_GROUP_MA=_F(
        NOM="ALL_PIPES_1D",
        TYPE_MAILLE="1D",
        UNION=[
            "BRAD_14_SEG",
            "BRAD_17_SEG",
            "BRAD_20_SEG",
            "BRAD_24_SEG",
            "BRAD_27_SEG",
            "BRAD_30_SEG",
            "BRAD_36_SEG",
            "BRAD_3_SEG",
            "BRAD_6_SEG",
            "BRAD_8_SEG",
            "BRAD__D10_14_SEG",
            "BRAD__D10_17_SEG",
            "BRAD__D10_20_SEG",
            "BRAD__D10_24_SEG",
            "BRAD__D10_27_SEG",
            "BRAD__D10_30_SEG",
            "BRAD__D10_36_SEG",
            "BRAD__D10_3_SEG",
            "BRAD__D10_6_SEG",
            "BRAD__D10_8_SEG",
            "BRAD__D11_14_SEG",
            "BRAD__D11_17_SEG",
            "BRAD__D11_20_SEG",
            "BRAD__D11_24_SEG",
            "BRAD__D11_27_SEG",
            "BRAD__D11_30_SEG",
            "BRAD__D11_36_SEG",
            "BRAD__D11_3_SEG",
            "BRAD__D11_6_SEG",
            "BRAD__D11_8_SEG",
            "BRAD__D12_14_SEG",
            "BRAD__D12_17_SEG",
            "BRAD__D12_20_SEG",
            "BRAD__D12_24_SEG",
            "BRAD__D12_27_SEG",
            "BRAD__D12_30_SEG",
            "BRAD__D12_36_SEG",
            "BRAD__D12_3_SEG",
            "BRAD__D12_6_SEG",
            "BRAD__D12_8_SEG",
            "BRAD__D13_14_SEG",
            "BRAD__D13_17_SEG",
            "BRAD__D13_20_SEG",
            "BRAD__D13_24_SEG",
            "BRAD__D13_27_SEG",
            "BRAD__D13_30_SEG",
            "BRAD__D13_36_SEG",
            "BRAD__D13_3_SEG",
            "BRAD__D13_6_SEG",
            "BRAD__D13_8_SEG",
            "BRAD__D14_14_SEG",
            "BRAD__D14_17_SEG",
            "BRAD__D14_20_SEG",
            "BRAD__D14_24_SEG",
            "BRAD__D14_27_SEG",
            "BRAD__D14_30_SEG",
            "BRAD__D14_36_SEG",
            "BRAD__D14_3_SEG",
            "BRAD__D14_6_SEG",
            "BRAD__D14_8_SEG",
            "BRAD__D15_14_SEG",
            "BRAD__D15_17_SEG",
            "BRAD__D15_20_SEG",
            "BRAD__D15_24_SEG",
            "BRAD__D15_27_SEG",
            "BRAD__D15_30_SEG",
            "BRAD__D15_36_SEG",
            "BRAD__D15_3_SEG",
            "BRAD__D15_6_SEG",
            "BRAD__D15_8_SEG",
            "BRAD__D16_14_SEG",
            "BRAD__D16_17_SEG",
            "BRAD__D16_20_SEG",
            "BRAD__D16_24_SEG",
            "BRAD__D16_27_SEG",
            "BRAD__D16_30_SEG",
            "BRAD__D16_36_SEG",
            "BRAD__D16_3_SEG",
            "BRAD__D16_6_SEG",
            "BRAD__D16_8_SEG",
            "BRAD__D17_14_SEG",
            "BRAD__D17_17_SEG",
            "BRAD__D17_20_SEG",
            "BRAD__D17_24_SEG",
            "BRAD__D17_27_SEG",
            "BRAD__D17_30_SEG",
            "BRAD__D17_36_SEG",
            "BRAD__D17_3_SEG",
            "BRAD__D17_6_SEG",
            "BRAD__D17_8_SEG",
            "BRAD__D18_14_SEG",
            "BRAD__D18_17_SEG",
            "BRAD__D18_20_SEG",
            "BRAD__D18_24_SEG",
            "BRAD__D18_27_SEG",
            "BRAD__D18_30_SEG",
            "BRAD__D18_36_SEG",
            "BRAD__D18_3_SEG",
            "BRAD__D18_6_SEG",
            "BRAD__D18_8_SEG",
            "BRAD__D19_14_SEG",
            "BRAD__D19_17_SEG",
            "BRAD__D19_20_SEG",
            "BRAD__D19_24_SEG",
            "BRAD__D19_27_SEG",
            "BRAD__D19_30_SEG",
            "BRAD__D19_36_SEG",
            "BRAD__D19_3_SEG",
            "BRAD__D19_6_SEG",
            "BRAD__D19_8_SEG",
            "BRAD__D1_14_SEG",
            "BRAD__D1_17_SEG",
            "BRAD__D1_20_SEG",
            "BRAD__D1_24_SEG",
            "BRAD__D1_27_SEG",
            "BRAD__D1_30_SEG",
            "BRAD__D1_36_SEG",
            "BRAD__D1_3_SEG",
            "BRAD__D1_6_SEG",
            "BRAD__D1_8_SEG",
            "BRAD__D20_14_SEG",
            "BRAD__D20_17_SEG",
            "BRAD__D20_20_SEG",
            "BRAD__D20_24_SEG",
            "BRAD__D20_27_SEG",
            "BRAD__D20_30_SEG",
            "BRAD__D20_36_SEG",
            "BRAD__D20_3_SEG",
            "BRAD__D20_6_SEG",
            "BRAD__D20_8_SEG",
            "BRAD__D21_14_SEG",
            "BRAD__D21_17_SEG",
            "BRAD__D21_20_SEG",
            "BRAD__D21_24_SEG",
            "BRAD__D21_27_SEG",
            "BRAD__D21_30_SEG",
            "BRAD__D21_36_SEG",
            "BRAD__D21_3_SEG",
            "BRAD__D21_6_SEG",
            "BRAD__D21_8_SEG",
            "BRAD__D22_14_SEG",
            "BRAD__D22_17_SEG",
            "BRAD__D22_20_SEG",
            "BRAD__D22_24_SEG",
            "BRAD__D22_27_SEG",
            "BRAD__D22_30_SEG",
            "BRAD__D22_36_SEG",
            "BRAD__D22_3_SEG",
            "BRAD__D22_6_SEG",
            "BRAD__D22_8_SEG",
            "BRAD__D23_14_SEG",
            "BRAD__D23_17_SEG",
            "BRAD__D23_20_SEG",
            "BRAD__D23_24_SEG",
            "BRAD__D23_27_SEG",
            "BRAD__D23_30_SEG",
            "BRAD__D23_36_SEG",
            "BRAD__D23_3_SEG",
            "BRAD__D23_6_SEG",
            "BRAD__D23_8_SEG",
            "BRAD__D24_14_SEG",
            "BRAD__D24_17_SEG",
            "BRAD__D24_20_SEG",
            "BRAD__D24_24_SEG",
            "BRAD__D24_27_SEG",
            "BRAD__D24_30_SEG",
            "BRAD__D24_36_SEG",
            "BRAD__D24_3_SEG",
            "BRAD__D24_6_SEG",
            "BRAD__D24_8_SEG",
            "BRAD__D2_14_SEG",
            "BRAD__D2_17_SEG",
            "BRAD__D2_20_SEG",
            "BRAD__D2_24_SEG",
            "BRAD__D2_27_SEG",
            "BRAD__D2_30_SEG",
            "BRAD__D2_36_SEG",
            "BRAD__D2_3_SEG",
            "BRAD__D2_6_SEG",
            "BRAD__D2_8_SEG",
            "BRAD__D3_14_SEG",
            "BRAD__D3_17_SEG",
            "BRAD__D3_20_SEG",
            "BRAD__D3_24_SEG",
            "BRAD__D3_27_SEG",
            "BRAD__D3_30_SEG",
            "BRAD__D3_36_SEG",
            "BRAD__D3_3_SEG",
            "BRAD__D3_6_SEG",
            "BRAD__D3_8_SEG",
            "BRAD__D4_14_SEG",
            "BRAD__D4_17_SEG",
            "BRAD__D4_20_SEG",
            "BRAD__D4_24_SEG",
            "BRAD__D4_27_SEG",
            "BRAD__D4_30_SEG",
            "BRAD__D4_36_SEG",
            "BRAD__D4_3_SEG",
            "BRAD__D4_6_SEG",
            "BRAD__D4_8_SEG",
            "BRAD__D5_14_SEG",
            "BRAD__D5_17_SEG",
            "BRAD__D5_20_SEG",
            "BRAD__D5_24_SEG",
            "BRAD__D5_27_SEG",
            "BRAD__D5_30_SEG",
            "BRAD__D5_36_SEG",
            "BRAD__D5_3_SEG",
            "BRAD__D5_6_SEG",
            "BRAD__D5_8_SEG",
            "BRAD__D6_14_SEG",
            "BRAD__D6_17_SEG",
            "BRAD__D6_20_SEG",
            "BRAD__D6_24_SEG",
            "BRAD__D6_27_SEG",
            "BRAD__D6_30_SEG",
            "BRAD__D6_36_SEG",
            "BRAD__D6_3_SEG",
            "BRAD__D6_6_SEG",
            "BRAD__D6_8_SEG",
            "BRAD__D7_14_SEG",
            "BRAD__D7_17_SEG",
            "BRAD__D7_20_SEG",
            "BRAD__D7_24_SEG",
            "BRAD__D7_27_SEG",
            "BRAD__D7_30_SEG",
            "BRAD__D7_36_SEG",
            "BRAD__D7_3_SEG",
            "BRAD__D7_6_SEG",
            "BRAD__D7_8_SEG",
            "BRAD__D8_14_SEG",
            "BRAD__D8_17_SEG",
            "BRAD__D8_20_SEG",
            "BRAD__D8_24_SEG",
            "BRAD__D8_27_SEG",
            "BRAD__D8_30_SEG",
            "BRAD__D8_36_SEG",
            "BRAD__D8_3_SEG",
            "BRAD__D8_6_SEG",
            "BRAD__D8_8_SEG",
            "BRAD__D9_14_SEG",
            "BRAD__D9_17_SEG",
            "BRAD__D9_20_SEG",
            "BRAD__D9_24_SEG",
            "BRAD__D9_27_SEG",
            "BRAD__D9_30_SEG",
            "BRAD__D9_36_SEG",
            "BRAD__D9_3_SEG",
            "BRAD__D9_6_SEG",
            "BRAD__D9_8_SEG",
            "BRAN_21_SEG",
            "BRAN_21_SEG_B",
            "TANG_32B_SEG",
            "TANG__D10_10_SEG",
            "TANG__D10_11_SEG",
            "TANG__D10_12_SEG",
            "TANG__D10_13_SEG",
            "TANG__D10_15_SEG",
            "TANG__D10_16_SEG",
            "TANG__D10_18_SEG",
            "TANG__D10_19_SEG",
            "TANG__D10_22_SEG",
            "TANG__D10_26_SEG",
            "TANG__D10_28_SEG",
            "TANG__D10_29_SEG",
            "TANG__D10_31_SEG",
            "TANG__D10_33_SEG",
            "TANG__D10_34_SEG",
            "TANG__D10_35_SEG",
            "TANG__D10_37_SEG",
            "TANG__D10_38_SEG",
            "TANG__D10_39_SEG",
            "TANG__D10_4_SEG",
            "TANG__D10_7_SEG",
            "TANG__D10_9_SEG",
            "TANG__D11_10_SEG",
            "TANG__D11_11_SEG",
            "TANG__D11_12_SEG",
            "TANG__D11_13_SEG",
            "TANG__D11_15_SEG",
            "TANG__D11_16_SEG",
            "TANG__D11_18_SEG",
            "TANG__D11_19_SEG",
            "TANG__D11_22_SEG",
            "TANG__D11_26_SEG",
            "TANG__D11_28_SEG",
            "TANG__D11_29_SEG",
            "TANG__D11_31_SEG",
            "TANG__D11_34_SEG",
            "TANG__D11_35_SEG",
            "TANG__D11_37_SEG",
            "TANG__D11_38_SEG",
            "TANG__D11_39_SEG",
            "TANG__D11_4_SEG",
            "TANG__D11_7_SEG",
            "TANG__D11_9_SEG",
            "TANG__D12_10_SEG",
            "TANG__D12_11_SEG",
            "TANG__D12_12_SEG",
            "TANG__D12_13_SEG",
            "TANG__D12_15_SEG",
            "TANG__D12_16_SEG",
            "TANG__D12_18_SEG",
            "TANG__D12_19_SEG",
            "TANG__D12_26_SEG",
            "TANG__D12_28_SEG",
            "TANG__D12_29_SEG",
            "TANG__D12_31_SEG",
            "TANG__D12_34_SEG",
            "TANG__D12_35_SEG",
            "TANG__D12_37_SEG",
            "TANG__D12_38_SEG",
            "TANG__D12_39_SEG",
            "TANG__D12_4_SEG",
            "TANG__D12_7_SEG",
            "TANG__D12_9_SEG",
            "TANG__D13_10_SEG",
            "TANG__D13_11_SEG",
            "TANG__D13_12_SEG",
            "TANG__D13_13_SEG",
            "TANG__D13_15_SEG",
            "TANG__D13_16_SEG",
            "TANG__D13_18_SEG",
            "TANG__D13_19_SEG",
            "TANG__D13_26_SEG",
            "TANG__D13_28_SEG",
            "TANG__D13_29_SEG",
            "TANG__D13_31_SEG",
            "TANG__D13_34_SEG",
            "TANG__D13_35_SEG",
            "TANG__D13_37_SEG",
            "TANG__D13_38_SEG",
            "TANG__D13_39_SEG",
            "TANG__D13_4_SEG",
            "TANG__D13_7_SEG",
            "TANG__D13_9_SEG",
            "TANG__D14_10_SEG",
            "TANG__D14_11_SEG",
            "TANG__D14_12_SEG",
            "TANG__D14_13_SEG",
            "TANG__D14_15_SEG",
            "TANG__D14_16_SEG",
            "TANG__D14_18_SEG",
            "TANG__D14_19_SEG",
            "TANG__D14_26_SEG",
            "TANG__D14_28_SEG",
            "TANG__D14_29_SEG",
            "TANG__D14_31_SEG",
            "TANG__D14_34_SEG",
            "TANG__D14_35_SEG",
            "TANG__D14_37_SEG",
            "TANG__D14_38_SEG",
            "TANG__D14_39_SEG",
            "TANG__D14_4_SEG",
            "TANG__D14_7_SEG",
            "TANG__D14_9_SEG",
            "TANG__D15_10_SEG",
            "TANG__D15_11_SEG",
            "TANG__D15_12_SEG",
            "TANG__D15_13_SEG",
            "TANG__D15_18_SEG",
            "TANG__D15_19_SEG",
            "TANG__D15_26_SEG",
            "TANG__D15_28_SEG",
            "TANG__D15_29_SEG",
            "TANG__D15_31_SEG",
            "TANG__D15_34_SEG",
            "TANG__D15_35_SEG",
            "TANG__D15_37_SEG",
            "TANG__D15_38_SEG",
            "TANG__D15_39_SEG",
            "TANG__D15_4_SEG",
            "TANG__D15_7_SEG",
            "TANG__D15_9_SEG",
            "TANG__D16_10_SEG",
            "TANG__D16_11_SEG",
            "TANG__D16_12_SEG",
            "TANG__D16_13_SEG",
            "TANG__D16_18_SEG",
            "TANG__D16_19_SEG",
            "TANG__D16_26_SEG",
            "TANG__D16_28_SEG",
            "TANG__D16_29_SEG",
            "TANG__D16_31_SEG",
            "TANG__D16_34_SEG",
            "TANG__D16_35_SEG",
            "TANG__D16_37_SEG",
            "TANG__D16_38_SEG",
            "TANG__D16_39_SEG",
            "TANG__D16_4_SEG",
            "TANG__D16_7_SEG",
            "TANG__D16_9_SEG",
            "TANG__D17_10_SEG",
            "TANG__D17_11_SEG",
            "TANG__D17_12_SEG",
            "TANG__D17_13_SEG",
            "TANG__D17_18_SEG",
            "TANG__D17_19_SEG",
            "TANG__D17_26_SEG",
            "TANG__D17_28_SEG",
            "TANG__D17_29_SEG",
            "TANG__D17_31_SEG",
            "TANG__D17_34_SEG",
            "TANG__D17_35_SEG",
            "TANG__D17_37_SEG",
            "TANG__D17_38_SEG",
            "TANG__D17_4_SEG",
            "TANG__D17_7_SEG",
            "TANG__D17_9_SEG",
            "TANG__D18_10_SEG",
            "TANG__D18_11_SEG",
            "TANG__D18_12_SEG",
            "TANG__D18_13_SEG",
            "TANG__D18_18_SEG",
            "TANG__D18_19_SEG",
            "TANG__D18_26_SEG",
            "TANG__D18_28_SEG",
            "TANG__D18_29_SEG",
            "TANG__D18_31_SEG",
            "TANG__D18_34_SEG",
            "TANG__D18_35_SEG",
            "TANG__D18_37_SEG",
            "TANG__D18_38_SEG",
            "TANG__D18_4_SEG",
            "TANG__D18_7_SEG",
            "TANG__D18_9_SEG",
            "TANG__D19_10_SEG",
            "TANG__D19_11_SEG",
            "TANG__D19_12_SEG",
            "TANG__D19_13_SEG",
            "TANG__D19_18_SEG",
            "TANG__D19_19_SEG",
            "TANG__D19_26_SEG",
            "TANG__D19_28_SEG",
            "TANG__D19_29_SEG",
            "TANG__D19_31_SEG",
            "TANG__D19_34_SEG",
            "TANG__D19_35_SEG",
            "TANG__D19_37_SEG",
            "TANG__D19_38_SEG",
            "TANG__D19_4_SEG",
            "TANG__D19_7_SEG",
            "TANG__D19_9_SEG",
            "TANG__D1_10_SEG",
            "TANG__D1_11_SEG",
            "TANG__D1_12_SEG",
            "TANG__D1_13_SEG",
            "TANG__D1_15_SEG",
            "TANG__D1_16_SEG",
            "TANG__D1_18_SEG",
            "TANG__D1_19_SEG",
            "TANG__D1_22_SEG",
            "TANG__D1_23_SEG",
            "TANG__D1_25_SEG",
            "TANG__D1_26_SEG",
            "TANG__D1_28_SEG",
            "TANG__D1_29_SEG",
            "TANG__D1_2_SEG",
            "TANG__D1_31_SEG",
            "TANG__D1_32_SEG",
            "TANG__D1_33_SEG",
            "TANG__D1_34_SEG",
            "TANG__D1_35_SEG",
            "TANG__D1_37_SEG",
            "TANG__D1_38_SEG",
            "TANG__D1_39_SEG",
            "TANG__D1_4_SEG",
            "TANG__D1_5_SEG",
            "TANG__D1_7_SEG",
            "TANG__D1_9_SEG",
            "TANG__D20_10_SEG",
            "TANG__D20_11_SEG",
            "TANG__D20_12_SEG",
            "TANG__D20_13_SEG",
            "TANG__D20_18_SEG",
            "TANG__D20_19_SEG",
            "TANG__D20_26_SEG",
            "TANG__D20_28_SEG",
            "TANG__D20_29_SEG",
            "TANG__D20_31_SEG",
            "TANG__D20_34_SEG",
            "TANG__D20_35_SEG",
            "TANG__D20_37_SEG",
            "TANG__D20_38_SEG",
            "TANG__D20_4_SEG",
            "TANG__D20_7_SEG",
            "TANG__D20_9_SEG",
            "TANG__D21_10_SEG",
            "TANG__D21_11_SEG",
            "TANG__D21_12_SEG",
            "TANG__D21_13_SEG",
            "TANG__D21_18_SEG",
            "TANG__D21_19_SEG",
            "TANG__D21_26_SEG",
            "TANG__D21_31_SEG",
            "TANG__D21_34_SEG",
            "TANG__D21_35_SEG",
            "TANG__D21_37_SEG",
            "TANG__D21_38_SEG",
            "TANG__D21_4_SEG",
            "TANG__D21_7_SEG",
            "TANG__D21_9_SEG",
            "TANG__D22_10_SEG",
            "TANG__D22_11_SEG",
            "TANG__D22_12_SEG",
            "TANG__D22_13_SEG",
            "TANG__D22_18_SEG",
            "TANG__D22_19_SEG",
            "TANG__D22_26_SEG",
            "TANG__D22_31_SEG",
            "TANG__D22_34_SEG",
            "TANG__D22_35_SEG",
            "TANG__D22_37_SEG",
            "TANG__D22_38_SEG",
            "TANG__D22_4_SEG",
            "TANG__D22_7_SEG",
            "TANG__D22_9_SEG",
            "TANG__D23_10_SEG",
            "TANG__D23_11_SEG",
            "TANG__D23_12_SEG",
            "TANG__D23_13_SEG",
            "TANG__D23_18_SEG",
            "TANG__D23_19_SEG",
            "TANG__D23_26_SEG",
            "TANG__D23_31_SEG",
            "TANG__D23_34_SEG",
            "TANG__D23_35_SEG",
            "TANG__D23_37_SEG",
            "TANG__D23_38_SEG",
            "TANG__D23_4_SEG",
            "TANG__D23_7_SEG",
            "TANG__D23_9_SEG",
            "TANG__D24_10_SEG",
            "TANG__D24_11_SEG",
            "TANG__D24_12_SEG",
            "TANG__D24_13_SEG",
            "TANG__D24_18_SEG",
            "TANG__D24_19_SEG",
            "TANG__D24_26_SEG",
            "TANG__D24_31_SEG",
            "TANG__D24_34_SEG",
            "TANG__D24_35_SEG",
            "TANG__D24_37_SEG",
            "TANG__D24_38_SEG",
            "TANG__D24_4_SEG",
            "TANG__D24_7_SEG",
            "TANG__D24_9_SEG",
            "TANG__D25_10_SEG",
            "TANG__D25_11_SEG",
            "TANG__D25_12_SEG",
            "TANG__D25_13_SEG",
            "TANG__D25_18_SEG",
            "TANG__D25_19_SEG",
            "TANG__D25_26_SEG",
            "TANG__D25_31_SEG",
            "TANG__D25_35_SEG",
            "TANG__D25_37_SEG",
            "TANG__D25_38_SEG",
            "TANG__D25_4_SEG",
            "TANG__D25_7_SEG",
            "TANG__D26_10_SEG",
            "TANG__D26_11_SEG",
            "TANG__D26_12_SEG",
            "TANG__D26_13_SEG",
            "TANG__D26_18_SEG",
            "TANG__D26_19_SEG",
            "TANG__D26_26_SEG",
            "TANG__D26_31_SEG",
            "TANG__D26_35_SEG",
            "TANG__D26_37_SEG",
            "TANG__D26_38_SEG",
            "TANG__D26_4_SEG",
            "TANG__D26_7_SEG",
            "TANG__D27_10_SEG",
            "TANG__D27_12_SEG",
            "TANG__D27_13_SEG",
            "TANG__D27_18_SEG",
            "TANG__D27_19_SEG",
            "TANG__D27_26_SEG",
            "TANG__D27_31_SEG",
            "TANG__D27_35_SEG",
            "TANG__D27_37_SEG",
            "TANG__D27_38_SEG",
            "TANG__D27_4_SEG",
            "TANG__D27_7_SEG",
            "TANG__D28_10_SEG",
            "TANG__D28_12_SEG",
            "TANG__D28_13_SEG",
            "TANG__D28_19_SEG",
            "TANG__D28_26_SEG",
            "TANG__D28_31_SEG",
            "TANG__D28_35_SEG",
            "TANG__D28_37_SEG",
            "TANG__D28_38_SEG",
            "TANG__D28_4_SEG",
            "TANG__D28_7_SEG",
            "TANG__D29_10_SEG",
            "TANG__D29_12_SEG",
            "TANG__D29_13_SEG",
            "TANG__D29_19_SEG",
            "TANG__D29_26_SEG",
            "TANG__D29_31_SEG",
            "TANG__D29_35_SEG",
            "TANG__D29_37_SEG",
            "TANG__D29_38_SEG",
            "TANG__D29_4_SEG",
            "TANG__D29_7_SEG",
            "TANG__D2_10_SEG",
            "TANG__D2_11_SEG",
            "TANG__D2_12_SEG",
            "TANG__D2_13_SEG",
            "TANG__D2_15_SEG",
            "TANG__D2_16_SEG",
            "TANG__D2_18_SEG",
            "TANG__D2_19_SEG",
            "TANG__D2_22_SEG",
            "TANG__D2_23_SEG",
            "TANG__D2_25_SEG",
            "TANG__D2_26_SEG",
            "TANG__D2_28_SEG",
            "TANG__D2_29_SEG",
            "TANG__D2_2_SEG",
            "TANG__D2_31_SEG",
            "TANG__D2_32_SEG",
            "TANG__D2_33_SEG",
            "TANG__D2_34_SEG",
            "TANG__D2_35_SEG",
            "TANG__D2_37_SEG",
            "TANG__D2_38_SEG",
            "TANG__D2_39_SEG",
            "TANG__D2_4_SEG",
            "TANG__D2_5_SEG",
            "TANG__D2_7_SEG",
            "TANG__D2_9_SEG",
            "TANG__D30_10_SEG",
            "TANG__D30_12_SEG",
            "TANG__D30_13_SEG",
            "TANG__D30_19_SEG",
            "TANG__D30_26_SEG",
            "TANG__D30_31_SEG",
            "TANG__D30_35_SEG",
            "TANG__D30_37_SEG",
            "TANG__D30_38_SEG",
            "TANG__D30_4_SEG",
            "TANG__D30_7_SEG",
            "TANG__D31_10_SEG",
            "TANG__D31_12_SEG",
            "TANG__D31_13_SEG",
            "TANG__D31_19_SEG",
            "TANG__D31_31_SEG",
            "TANG__D31_35_SEG",
            "TANG__D31_37_SEG",
            "TANG__D31_38_SEG",
            "TANG__D31_4_SEG",
            "TANG__D31_7_SEG",
            "TANG__D32_10_SEG",
            "TANG__D32_12_SEG",
            "TANG__D32_13_SEG",
            "TANG__D32_19_SEG",
            "TANG__D32_31_SEG",
            "TANG__D32_35_SEG",
            "TANG__D32_37_SEG",
            "TANG__D32_38_SEG",
            "TANG__D32_4_SEG",
            "TANG__D32_7_SEG",
            "TANG__D33_10_SEG",
            "TANG__D33_12_SEG",
            "TANG__D33_13_SEG",
            "TANG__D33_19_SEG",
            "TANG__D33_31_SEG",
            "TANG__D33_35_SEG",
            "TANG__D33_37_SEG",
            "TANG__D33_38_SEG",
            "TANG__D33_4_SEG",
            "TANG__D33_7_SEG",
            "TANG__D34_10_SEG",
            "TANG__D34_12_SEG",
            "TANG__D34_13_SEG",
            "TANG__D34_19_SEG",
            "TANG__D34_31_SEG",
            "TANG__D34_35_SEG",
            "TANG__D34_37_SEG",
            "TANG__D34_38_SEG",
            "TANG__D34_4_SEG",
            "TANG__D34_7_SEG",
            "TANG__D35_10_SEG",
            "TANG__D35_12_SEG",
            "TANG__D35_13_SEG",
            "TANG__D35_19_SEG",
            "TANG__D35_31_SEG",
            "TANG__D35_35_SEG",
            "TANG__D35_37_SEG",
            "TANG__D35_38_SEG",
            "TANG__D35_4_SEG",
            "TANG__D35_7_SEG",
            "TANG__D36_10_SEG",
            "TANG__D36_12_SEG",
            "TANG__D36_13_SEG",
            "TANG__D36_19_SEG",
            "TANG__D36_31_SEG",
            "TANG__D36_35_SEG",
            "TANG__D36_37_SEG",
            "TANG__D36_38_SEG",
            "TANG__D36_4_SEG",
            "TANG__D36_7_SEG",
            "TANG__D37_10_SEG",
            "TANG__D37_12_SEG",
            "TANG__D37_13_SEG",
            "TANG__D37_19_SEG",
            "TANG__D37_31_SEG",
            "TANG__D37_35_SEG",
            "TANG__D37_37_SEG",
            "TANG__D37_38_SEG",
            "TANG__D37_4_SEG",
            "TANG__D37_7_SEG",
            "TANG__D38_10_SEG",
            "TANG__D38_12_SEG",
            "TANG__D38_13_SEG",
            "TANG__D38_19_SEG",
            "TANG__D38_31_SEG",
            "TANG__D38_35_SEG",
            "TANG__D38_37_SEG",
            "TANG__D38_38_SEG",
            "TANG__D38_4_SEG",
            "TANG__D38_7_SEG",
            "TANG__D39_10_SEG",
            "TANG__D39_12_SEG",
            "TANG__D39_13_SEG",
            "TANG__D39_19_SEG",
            "TANG__D39_31_SEG",
            "TANG__D39_35_SEG",
            "TANG__D39_37_SEG",
            "TANG__D39_38_SEG",
            "TANG__D39_4_SEG",
            "TANG__D39_7_SEG",
            "TANG__D3_10_SEG",
            "TANG__D3_11_SEG",
            "TANG__D3_12_SEG",
            "TANG__D3_13_SEG",
            "TANG__D3_15_SEG",
            "TANG__D3_16_SEG",
            "TANG__D3_18_SEG",
            "TANG__D3_19_SEG",
            "TANG__D3_22_SEG",
            "TANG__D3_23_SEG",
            "TANG__D3_25_SEG",
            "TANG__D3_26_SEG",
            "TANG__D3_28_SEG",
            "TANG__D3_29_SEG",
            "TANG__D3_2_SEG",
            "TANG__D3_31_SEG",
            "TANG__D3_32_SEG",
            "TANG__D3_33_SEG",
            "TANG__D3_34_SEG",
            "TANG__D3_35_SEG",
            "TANG__D3_37_SEG",
            "TANG__D3_38_SEG",
            "TANG__D3_39_SEG",
            "TANG__D3_4_SEG",
            "TANG__D3_5_SEG",
            "TANG__D3_7_SEG",
            "TANG__D3_9_SEG",
            "TANG__D40_10_SEG",
            "TANG__D40_12_SEG",
            "TANG__D40_13_SEG",
            "TANG__D40_19_SEG",
            "TANG__D40_31_SEG",
            "TANG__D40_35_SEG",
            "TANG__D40_37_SEG",
            "TANG__D40_38_SEG",
            "TANG__D40_4_SEG",
            "TANG__D40_7_SEG",
            "TANG__D41_10_SEG",
            "TANG__D41_12_SEG",
            "TANG__D41_13_SEG",
            "TANG__D41_19_SEG",
            "TANG__D41_31_SEG",
            "TANG__D41_35_SEG",
            "TANG__D41_37_SEG",
            "TANG__D41_38_SEG",
            "TANG__D41_4_SEG",
            "TANG__D41_7_SEG",
            "TANG__D42_10_SEG",
            "TANG__D42_12_SEG",
            "TANG__D42_13_SEG",
            "TANG__D42_19_SEG",
            "TANG__D42_31_SEG",
            "TANG__D42_35_SEG",
            "TANG__D42_37_SEG",
            "TANG__D42_38_SEG",
            "TANG__D42_4_SEG",
            "TANG__D42_7_SEG",
            "TANG__D43_10_SEG",
            "TANG__D43_12_SEG",
            "TANG__D43_13_SEG",
            "TANG__D43_19_SEG",
            "TANG__D43_31_SEG",
            "TANG__D43_35_SEG",
            "TANG__D43_37_SEG",
            "TANG__D43_38_SEG",
            "TANG__D43_4_SEG",
            "TANG__D43_7_SEG",
            "TANG__D44_10_SEG",
            "TANG__D44_12_SEG",
            "TANG__D44_13_SEG",
            "TANG__D44_19_SEG",
            "TANG__D44_31_SEG",
            "TANG__D44_35_SEG",
            "TANG__D44_37_SEG",
            "TANG__D44_38_SEG",
            "TANG__D44_4_SEG",
            "TANG__D44_7_SEG",
            "TANG__D45_10_SEG",
            "TANG__D45_12_SEG",
            "TANG__D45_13_SEG",
            "TANG__D45_19_SEG",
            "TANG__D45_31_SEG",
            "TANG__D45_35_SEG",
            "TANG__D45_37_SEG",
            "TANG__D45_38_SEG",
            "TANG__D45_4_SEG",
            "TANG__D45_7_SEG",
            "TANG__D46_10_SEG",
            "TANG__D46_12_SEG",
            "TANG__D46_13_SEG",
            "TANG__D46_19_SEG",
            "TANG__D46_31_SEG",
            "TANG__D46_35_SEG",
            "TANG__D46_37_SEG",
            "TANG__D46_38_SEG",
            "TANG__D46_4_SEG",
            "TANG__D47_10_SEG",
            "TANG__D47_12_SEG",
            "TANG__D47_13_SEG",
            "TANG__D47_19_SEG",
            "TANG__D47_31_SEG",
            "TANG__D47_35_SEG",
            "TANG__D47_37_SEG",
            "TANG__D47_38_SEG",
            "TANG__D47_4_SEG",
            "TANG__D48_10_SEG",
            "TANG__D48_12_SEG",
            "TANG__D48_13_SEG",
            "TANG__D48_19_SEG",
            "TANG__D48_31_SEG",
            "TANG__D48_35_SEG",
            "TANG__D48_37_SEG",
            "TANG__D48_38_SEG",
            "TANG__D48_4_SEG",
            "TANG__D49_10_SEG",
            "TANG__D49_12_SEG",
            "TANG__D49_13_SEG",
            "TANG__D49_19_SEG",
            "TANG__D49_31_SEG",
            "TANG__D49_35_SEG",
            "TANG__D49_37_SEG",
            "TANG__D49_38_SEG",
            "TANG__D49_4_SEG",
            "TANG__D4_10_SEG",
            "TANG__D4_11_SEG",
            "TANG__D4_12_SEG",
            "TANG__D4_13_SEG",
            "TANG__D4_15_SEG",
            "TANG__D4_16_SEG",
            "TANG__D4_18_SEG",
            "TANG__D4_19_SEG",
            "TANG__D4_22_SEG",
            "TANG__D4_23_SEG",
            "TANG__D4_25_SEG",
            "TANG__D4_26_SEG",
            "TANG__D4_28_SEG",
            "TANG__D4_29_SEG",
            "TANG__D4_2_SEG",
            "TANG__D4_31_SEG",
            "TANG__D4_32_SEG",
            "TANG__D4_33_SEG",
            "TANG__D4_34_SEG",
            "TANG__D4_35_SEG",
            "TANG__D4_37_SEG",
            "TANG__D4_38_SEG",
            "TANG__D4_39_SEG",
            "TANG__D4_4_SEG",
            "TANG__D4_5_SEG",
            "TANG__D4_7_SEG",
            "TANG__D4_9_SEG",
            "TANG__D50_10_SEG",
            "TANG__D50_12_SEG",
            "TANG__D50_13_SEG",
            "TANG__D50_31_SEG",
            "TANG__D50_35_SEG",
            "TANG__D50_37_SEG",
            "TANG__D50_38_SEG",
            "TANG__D50_4_SEG",
            "TANG__D51_10_SEG",
            "TANG__D51_12_SEG",
            "TANG__D51_13_SEG",
            "TANG__D51_31_SEG",
            "TANG__D51_35_SEG",
            "TANG__D51_37_SEG",
            "TANG__D51_38_SEG",
            "TANG__D51_4_SEG",
            "TANG__D52_10_SEG",
            "TANG__D52_12_SEG",
            "TANG__D52_13_SEG",
            "TANG__D52_31_SEG",
            "TANG__D52_35_SEG",
            "TANG__D52_37_SEG",
            "TANG__D52_38_SEG",
            "TANG__D52_4_SEG",
            "TANG__D53_12_SEG",
            "TANG__D53_13_SEG",
            "TANG__D53_31_SEG",
            "TANG__D53_35_SEG",
            "TANG__D53_37_SEG",
            "TANG__D53_38_SEG",
            "TANG__D53_4_SEG",
            "TANG__D54_12_SEG",
            "TANG__D54_13_SEG",
            "TANG__D54_31_SEG",
            "TANG__D54_35_SEG",
            "TANG__D54_37_SEG",
            "TANG__D54_38_SEG",
            "TANG__D54_4_SEG",
            "TANG__D55_12_SEG",
            "TANG__D55_13_SEG",
            "TANG__D55_31_SEG",
            "TANG__D55_35_SEG",
            "TANG__D55_37_SEG",
            "TANG__D55_38_SEG",
            "TANG__D55_4_SEG",
            "TANG__D56_12_SEG",
            "TANG__D56_13_SEG",
            "TANG__D56_31_SEG",
            "TANG__D56_35_SEG",
            "TANG__D56_37_SEG",
            "TANG__D56_38_SEG",
            "TANG__D56_4_SEG",
            "TANG__D57_12_SEG",
            "TANG__D57_13_SEG",
            "TANG__D57_31_SEG",
            "TANG__D57_35_SEG",
            "TANG__D57_37_SEG",
            "TANG__D57_38_SEG",
            "TANG__D57_4_SEG",
            "TANG__D58_12_SEG",
            "TANG__D58_13_SEG",
            "TANG__D58_31_SEG",
            "TANG__D58_35_SEG",
            "TANG__D58_37_SEG",
            "TANG__D58_38_SEG",
            "TANG__D58_4_SEG",
            "TANG__D59_12_SEG",
            "TANG__D59_13_SEG",
            "TANG__D59_31_SEG",
            "TANG__D59_35_SEG",
            "TANG__D59_37_SEG",
            "TANG__D59_38_SEG",
            "TANG__D5_10_SEG",
            "TANG__D5_11_SEG",
            "TANG__D5_12_SEG",
            "TANG__D5_13_SEG",
            "TANG__D5_15_SEG",
            "TANG__D5_16_SEG",
            "TANG__D5_18_SEG",
            "TANG__D5_19_SEG",
            "TANG__D5_22_SEG",
            "TANG__D5_23_SEG",
            "TANG__D5_25_SEG",
            "TANG__D5_26_SEG",
            "TANG__D5_28_SEG",
            "TANG__D5_29_SEG",
            "TANG__D5_2_SEG",
            "TANG__D5_31_SEG",
            "TANG__D5_32_SEG",
            "TANG__D5_33_SEG",
            "TANG__D5_34_SEG",
            "TANG__D5_35_SEG",
            "TANG__D5_37_SEG",
            "TANG__D5_38_SEG",
            "TANG__D5_39_SEG",
            "TANG__D5_4_SEG",
            "TANG__D5_5_SEG",
            "TANG__D5_7_SEG",
            "TANG__D5_9_SEG",
            "TANG__D60_12_SEG",
            "TANG__D60_13_SEG",
            "TANG__D60_31_SEG",
            "TANG__D60_35_SEG",
            "TANG__D60_37_SEG",
            "TANG__D60_38_SEG",
            "TANG__D61_12_SEG",
            "TANG__D61_13_SEG",
            "TANG__D61_35_SEG",
            "TANG__D61_37_SEG",
            "TANG__D61_38_SEG",
            "TANG__D62_12_SEG",
            "TANG__D62_13_SEG",
            "TANG__D62_35_SEG",
            "TANG__D62_37_SEG",
            "TANG__D62_38_SEG",
            "TANG__D63_12_SEG",
            "TANG__D63_13_SEG",
            "TANG__D63_35_SEG",
            "TANG__D63_37_SEG",
            "TANG__D63_38_SEG",
            "TANG__D64_12_SEG",
            "TANG__D64_13_SEG",
            "TANG__D64_35_SEG",
            "TANG__D64_37_SEG",
            "TANG__D64_38_SEG",
            "TANG__D65_12_SEG",
            "TANG__D65_13_SEG",
            "TANG__D65_35_SEG",
            "TANG__D65_37_SEG",
            "TANG__D65_38_SEG",
            "TANG__D66_12_SEG",
            "TANG__D66_13_SEG",
            "TANG__D66_35_SEG",
            "TANG__D66_37_SEG",
            "TANG__D66_38_SEG",
            "TANG__D67_12_SEG",
            "TANG__D67_13_SEG",
            "TANG__D67_35_SEG",
            "TANG__D67_37_SEG",
            "TANG__D67_38_SEG",
            "TANG__D68_12_SEG",
            "TANG__D68_13_SEG",
            "TANG__D68_35_SEG",
            "TANG__D68_37_SEG",
            "TANG__D68_38_SEG",
            "TANG__D69_12_SEG",
            "TANG__D69_13_SEG",
            "TANG__D69_35_SEG",
            "TANG__D69_37_SEG",
            "TANG__D69_38_SEG",
            "TANG__D6_10_SEG",
            "TANG__D6_11_SEG",
            "TANG__D6_12_SEG",
            "TANG__D6_13_SEG",
            "TANG__D6_15_SEG",
            "TANG__D6_16_SEG",
            "TANG__D6_18_SEG",
            "TANG__D6_19_SEG",
            "TANG__D6_22_SEG",
            "TANG__D6_25_SEG",
            "TANG__D6_26_SEG",
            "TANG__D6_28_SEG",
            "TANG__D6_29_SEG",
            "TANG__D6_31_SEG",
            "TANG__D6_32_SEG",
            "TANG__D6_33_SEG",
            "TANG__D6_34_SEG",
            "TANG__D6_35_SEG",
            "TANG__D6_37_SEG",
            "TANG__D6_38_SEG",
            "TANG__D6_39_SEG",
            "TANG__D6_4_SEG",
            "TANG__D6_5_SEG",
            "TANG__D6_7_SEG",
            "TANG__D6_9_SEG",
            "TANG__D70_12_SEG",
            "TANG__D70_13_SEG",
            "TANG__D70_35_SEG",
            "TANG__D70_37_SEG",
            "TANG__D70_38_SEG",
            "TANG__D71_12_SEG",
            "TANG__D71_13_SEG",
            "TANG__D71_35_SEG",
            "TANG__D71_37_SEG",
            "TANG__D71_38_SEG",
            "TANG__D72_12_SEG",
            "TANG__D72_13_SEG",
            "TANG__D72_35_SEG",
            "TANG__D72_37_SEG",
            "TANG__D72_38_SEG",
            "TANG__D73_12_SEG",
            "TANG__D74_12_SEG",
            "TANG__D75_12_SEG",
            "TANG__D76_12_SEG",
            "TANG__D77_12_SEG",
            "TANG__D78_12_SEG",
            "TANG__D7_10_SEG",
            "TANG__D7_11_SEG",
            "TANG__D7_12_SEG",
            "TANG__D7_13_SEG",
            "TANG__D7_15_SEG",
            "TANG__D7_16_SEG",
            "TANG__D7_18_SEG",
            "TANG__D7_19_SEG",
            "TANG__D7_22_SEG",
            "TANG__D7_26_SEG",
            "TANG__D7_28_SEG",
            "TANG__D7_29_SEG",
            "TANG__D7_31_SEG",
            "TANG__D7_32_SEG",
            "TANG__D7_33_SEG",
            "TANG__D7_34_SEG",
            "TANG__D7_35_SEG",
            "TANG__D7_37_SEG",
            "TANG__D7_38_SEG",
            "TANG__D7_39_SEG",
            "TANG__D7_4_SEG",
            "TANG__D7_7_SEG",
            "TANG__D7_9_SEG",
            "TANG__D8_10_SEG",
            "TANG__D8_11_SEG",
            "TANG__D8_12_SEG",
            "TANG__D8_13_SEG",
            "TANG__D8_15_SEG",
            "TANG__D8_16_SEG",
            "TANG__D8_18_SEG",
            "TANG__D8_19_SEG",
            "TANG__D8_22_SEG",
            "TANG__D8_26_SEG",
            "TANG__D8_28_SEG",
            "TANG__D8_29_SEG",
            "TANG__D8_31_SEG",
            "TANG__D8_32_SEG",
            "TANG__D8_33_SEG",
            "TANG__D8_34_SEG",
            "TANG__D8_35_SEG",
            "TANG__D8_37_SEG",
            "TANG__D8_38_SEG",
            "TANG__D8_39_SEG",
            "TANG__D8_4_SEG",
            "TANG__D8_7_SEG",
            "TANG__D8_9_SEG",
            "TANG__D9_10_SEG",
            "TANG__D9_11_SEG",
            "TANG__D9_12_SEG",
            "TANG__D9_13_SEG",
            "TANG__D9_15_SEG",
            "TANG__D9_16_SEG",
            "TANG__D9_18_SEG",
            "TANG__D9_19_SEG",
            "TANG__D9_22_SEG",
            "TANG__D9_26_SEG",
            "TANG__D9_28_SEG",
            "TANG__D9_29_SEG",
            "TANG__D9_31_SEG",
            "TANG__D9_33_SEG",
            "TANG__D9_34_SEG",
            "TANG__D9_35_SEG",
            "TANG__D9_37_SEG",
            "TANG__D9_38_SEG",
            "TANG__D9_39_SEG",
            "TANG__D9_4_SEG",
            "TANG__D9_7_SEG",
            "TANG__D9_9_SEG",
        ],
    ),
)
#
#
MODEL = AFFE_MODELE(
    MAILLAGE=MESH,
    AFFE=(
        _F(
            GROUP_MA=[
                "TANG__D1_2_SEG",
                "TANG__D2_2_SEG",
                "TANG__D3_2_SEG",
                "TANG__D4_2_SEG",
                "TANG__D5_2_SEG",
                "TANG__D1_4_SEG",
                "TANG__D2_4_SEG",
                "TANG__D3_4_SEG",
                "TANG__D4_4_SEG",
                "TANG__D5_4_SEG",
                "TANG__D6_4_SEG",
                "TANG__D7_4_SEG",
                "TANG__D8_4_SEG",
                "TANG__D9_4_SEG",
                "TANG__D10_4_SEG",
                "TANG__D11_4_SEG",
                "TANG__D12_4_SEG",
                "TANG__D13_4_SEG",
                "TANG__D14_4_SEG",
                "TANG__D15_4_SEG",
                "TANG__D16_4_SEG",
                "TANG__D17_4_SEG",
                "TANG__D18_4_SEG",
                "TANG__D19_4_SEG",
                "TANG__D20_4_SEG",
                "TANG__D21_4_SEG",
                "TANG__D22_4_SEG",
                "TANG__D23_4_SEG",
                "TANG__D24_4_SEG",
                "TANG__D25_4_SEG",
                "TANG__D26_4_SEG",
                "TANG__D27_4_SEG",
                "TANG__D28_4_SEG",
                "TANG__D29_4_SEG",
                "TANG__D30_4_SEG",
                "TANG__D31_4_SEG",
                "TANG__D32_4_SEG",
                "TANG__D33_4_SEG",
                "TANG__D34_4_SEG",
                "TANG__D35_4_SEG",
                "TANG__D36_4_SEG",
                "TANG__D37_4_SEG",
                "TANG__D38_4_SEG",
                "TANG__D39_4_SEG",
                "TANG__D40_4_SEG",
                "TANG__D41_4_SEG",
                "TANG__D42_4_SEG",
                "TANG__D43_4_SEG",
                "TANG__D44_4_SEG",
                "TANG__D45_4_SEG",
                "TANG__D46_4_SEG",
                "TANG__D47_4_SEG",
                "TANG__D48_4_SEG",
                "TANG__D49_4_SEG",
                "TANG__D50_4_SEG",
                "TANG__D51_4_SEG",
                "TANG__D52_4_SEG",
                "TANG__D53_4_SEG",
                "TANG__D54_4_SEG",
                "TANG__D55_4_SEG",
                "TANG__D56_4_SEG",
                "TANG__D57_4_SEG",
                "TANG__D58_4_SEG",
                "TANG__D1_5_SEG",
                "TANG__D2_5_SEG",
                "TANG__D3_5_SEG",
                "TANG__D4_5_SEG",
                "TANG__D5_5_SEG",
                "TANG__D6_5_SEG",
                "TANG__D1_7_SEG",
                "TANG__D2_7_SEG",
                "TANG__D3_7_SEG",
                "TANG__D4_7_SEG",
                "TANG__D5_7_SEG",
                "TANG__D6_7_SEG",
                "TANG__D7_7_SEG",
                "TANG__D8_7_SEG",
                "TANG__D9_7_SEG",
                "TANG__D10_7_SEG",
                "TANG__D11_7_SEG",
                "TANG__D12_7_SEG",
                "TANG__D13_7_SEG",
                "TANG__D14_7_SEG",
                "TANG__D15_7_SEG",
                "TANG__D16_7_SEG",
                "TANG__D17_7_SEG",
                "TANG__D18_7_SEG",
                "TANG__D19_7_SEG",
                "TANG__D20_7_SEG",
                "TANG__D21_7_SEG",
                "TANG__D22_7_SEG",
                "TANG__D23_7_SEG",
                "TANG__D24_7_SEG",
                "TANG__D25_7_SEG",
                "TANG__D26_7_SEG",
                "TANG__D27_7_SEG",
                "TANG__D28_7_SEG",
                "TANG__D29_7_SEG",
                "TANG__D30_7_SEG",
                "TANG__D31_7_SEG",
                "TANG__D32_7_SEG",
                "TANG__D33_7_SEG",
                "TANG__D34_7_SEG",
                "TANG__D35_7_SEG",
                "TANG__D36_7_SEG",
                "TANG__D37_7_SEG",
                "TANG__D38_7_SEG",
                "TANG__D39_7_SEG",
                "TANG__D40_7_SEG",
                "TANG__D41_7_SEG",
                "TANG__D42_7_SEG",
                "TANG__D43_7_SEG",
                "TANG__D44_7_SEG",
                "TANG__D45_7_SEG",
                "TANG__D1_9_SEG",
                "TANG__D2_9_SEG",
                "TANG__D3_9_SEG",
                "TANG__D4_9_SEG",
                "TANG__D5_9_SEG",
                "TANG__D6_9_SEG",
                "TANG__D7_9_SEG",
                "TANG__D8_9_SEG",
                "TANG__D9_9_SEG",
                "TANG__D10_9_SEG",
                "TANG__D11_9_SEG",
                "TANG__D12_9_SEG",
                "TANG__D13_9_SEG",
                "TANG__D14_9_SEG",
                "TANG__D15_9_SEG",
                "TANG__D16_9_SEG",
                "TANG__D17_9_SEG",
                "TANG__D18_9_SEG",
                "TANG__D19_9_SEG",
                "TANG__D20_9_SEG",
                "TANG__D21_9_SEG",
                "TANG__D22_9_SEG",
                "TANG__D23_9_SEG",
                "TANG__D24_9_SEG",
                "TANG__D1_10_SEG",
                "TANG__D2_10_SEG",
                "TANG__D3_10_SEG",
                "TANG__D4_10_SEG",
                "TANG__D5_10_SEG",
                "TANG__D6_10_SEG",
                "TANG__D7_10_SEG",
                "TANG__D8_10_SEG",
                "TANG__D9_10_SEG",
                "TANG__D10_10_SEG",
                "TANG__D11_10_SEG",
                "TANG__D12_10_SEG",
                "TANG__D13_10_SEG",
                "TANG__D14_10_SEG",
                "TANG__D15_10_SEG",
                "TANG__D16_10_SEG",
                "TANG__D17_10_SEG",
                "TANG__D18_10_SEG",
                "TANG__D19_10_SEG",
                "TANG__D20_10_SEG",
                "TANG__D21_10_SEG",
                "TANG__D22_10_SEG",
                "TANG__D23_10_SEG",
                "TANG__D24_10_SEG",
                "TANG__D25_10_SEG",
                "TANG__D26_10_SEG",
                "TANG__D27_10_SEG",
                "TANG__D28_10_SEG",
                "TANG__D29_10_SEG",
                "TANG__D30_10_SEG",
                "TANG__D31_10_SEG",
                "TANG__D32_10_SEG",
                "TANG__D33_10_SEG",
                "TANG__D34_10_SEG",
                "TANG__D35_10_SEG",
                "TANG__D36_10_SEG",
                "TANG__D37_10_SEG",
                "TANG__D38_10_SEG",
                "TANG__D39_10_SEG",
                "TANG__D40_10_SEG",
                "TANG__D41_10_SEG",
                "TANG__D42_10_SEG",
                "TANG__D43_10_SEG",
                "TANG__D44_10_SEG",
                "TANG__D45_10_SEG",
                "TANG__D46_10_SEG",
                "TANG__D47_10_SEG",
                "TANG__D48_10_SEG",
                "TANG__D49_10_SEG",
                "TANG__D50_10_SEG",
                "TANG__D51_10_SEG",
                "TANG__D52_10_SEG",
                "TANG__D1_11_SEG",
                "TANG__D2_11_SEG",
                "TANG__D3_11_SEG",
                "TANG__D4_11_SEG",
                "TANG__D5_11_SEG",
                "TANG__D6_11_SEG",
                "TANG__D7_11_SEG",
                "TANG__D8_11_SEG",
                "TANG__D9_11_SEG",
                "TANG__D10_11_SEG",
                "TANG__D11_11_SEG",
                "TANG__D12_11_SEG",
                "TANG__D13_11_SEG",
                "TANG__D14_11_SEG",
                "TANG__D15_11_SEG",
                "TANG__D16_11_SEG",
                "TANG__D17_11_SEG",
                "TANG__D18_11_SEG",
                "TANG__D19_11_SEG",
                "TANG__D20_11_SEG",
                "TANG__D21_11_SEG",
                "TANG__D22_11_SEG",
                "TANG__D23_11_SEG",
                "TANG__D24_11_SEG",
                "TANG__D25_11_SEG",
                "TANG__D26_11_SEG",
                "TANG__D1_12_SEG",
                "TANG__D2_12_SEG",
                "TANG__D3_12_SEG",
                "TANG__D4_12_SEG",
                "TANG__D5_12_SEG",
                "TANG__D6_12_SEG",
                "TANG__D7_12_SEG",
                "TANG__D8_12_SEG",
                "TANG__D9_12_SEG",
                "TANG__D10_12_SEG",
                "TANG__D11_12_SEG",
                "TANG__D12_12_SEG",
                "TANG__D13_12_SEG",
                "TANG__D14_12_SEG",
                "TANG__D15_12_SEG",
                "TANG__D16_12_SEG",
                "TANG__D17_12_SEG",
                "TANG__D18_12_SEG",
                "TANG__D19_12_SEG",
                "TANG__D20_12_SEG",
                "TANG__D21_12_SEG",
                "TANG__D22_12_SEG",
                "TANG__D23_12_SEG",
                "TANG__D24_12_SEG",
                "TANG__D25_12_SEG",
                "TANG__D26_12_SEG",
                "TANG__D27_12_SEG",
                "TANG__D28_12_SEG",
                "TANG__D29_12_SEG",
                "TANG__D30_12_SEG",
                "TANG__D31_12_SEG",
                "TANG__D32_12_SEG",
                "TANG__D33_12_SEG",
                "TANG__D34_12_SEG",
                "TANG__D35_12_SEG",
                "TANG__D36_12_SEG",
                "TANG__D37_12_SEG",
                "TANG__D38_12_SEG",
                "TANG__D39_12_SEG",
                "TANG__D40_12_SEG",
                "TANG__D41_12_SEG",
                "TANG__D42_12_SEG",
                "TANG__D43_12_SEG",
                "TANG__D44_12_SEG",
                "TANG__D45_12_SEG",
                "TANG__D46_12_SEG",
                "TANG__D47_12_SEG",
                "TANG__D48_12_SEG",
                "TANG__D49_12_SEG",
                "TANG__D50_12_SEG",
                "TANG__D51_12_SEG",
                "TANG__D52_12_SEG",
                "TANG__D53_12_SEG",
                "TANG__D54_12_SEG",
                "TANG__D55_12_SEG",
                "TANG__D56_12_SEG",
                "TANG__D57_12_SEG",
                "TANG__D58_12_SEG",
                "TANG__D59_12_SEG",
                "TANG__D60_12_SEG",
                "TANG__D61_12_SEG",
                "TANG__D62_12_SEG",
                "TANG__D63_12_SEG",
                "TANG__D64_12_SEG",
                "TANG__D65_12_SEG",
                "TANG__D66_12_SEG",
                "TANG__D67_12_SEG",
                "TANG__D68_12_SEG",
                "TANG__D69_12_SEG",
                "TANG__D70_12_SEG",
                "TANG__D71_12_SEG",
                "TANG__D72_12_SEG",
                "TANG__D73_12_SEG",
                "TANG__D74_12_SEG",
                "TANG__D75_12_SEG",
                "TANG__D76_12_SEG",
                "TANG__D77_12_SEG",
                "TANG__D78_12_SEG",
                "TANG__D1_13_SEG",
                "TANG__D2_13_SEG",
                "TANG__D3_13_SEG",
                "TANG__D4_13_SEG",
                "TANG__D5_13_SEG",
                "TANG__D6_13_SEG",
                "TANG__D7_13_SEG",
                "TANG__D8_13_SEG",
                "TANG__D9_13_SEG",
                "TANG__D10_13_SEG",
                "TANG__D11_13_SEG",
                "TANG__D12_13_SEG",
                "TANG__D13_13_SEG",
                "TANG__D14_13_SEG",
                "TANG__D15_13_SEG",
                "TANG__D16_13_SEG",
                "TANG__D17_13_SEG",
                "TANG__D18_13_SEG",
                "TANG__D19_13_SEG",
                "TANG__D20_13_SEG",
                "TANG__D21_13_SEG",
                "TANG__D22_13_SEG",
                "TANG__D23_13_SEG",
                "TANG__D24_13_SEG",
                "TANG__D25_13_SEG",
                "TANG__D26_13_SEG",
                "TANG__D27_13_SEG",
                "TANG__D28_13_SEG",
                "TANG__D29_13_SEG",
                "TANG__D30_13_SEG",
                "TANG__D31_13_SEG",
                "TANG__D32_13_SEG",
                "TANG__D33_13_SEG",
                "TANG__D34_13_SEG",
                "TANG__D35_13_SEG",
                "TANG__D36_13_SEG",
                "TANG__D37_13_SEG",
                "TANG__D38_13_SEG",
                "TANG__D39_13_SEG",
                "TANG__D40_13_SEG",
                "TANG__D41_13_SEG",
                "TANG__D42_13_SEG",
                "TANG__D43_13_SEG",
                "TANG__D44_13_SEG",
                "TANG__D45_13_SEG",
                "TANG__D46_13_SEG",
                "TANG__D47_13_SEG",
                "TANG__D48_13_SEG",
                "TANG__D49_13_SEG",
                "TANG__D50_13_SEG",
                "TANG__D51_13_SEG",
                "TANG__D52_13_SEG",
                "TANG__D53_13_SEG",
                "TANG__D54_13_SEG",
                "TANG__D55_13_SEG",
                "TANG__D56_13_SEG",
                "TANG__D57_13_SEG",
                "TANG__D58_13_SEG",
                "TANG__D59_13_SEG",
                "TANG__D60_13_SEG",
                "TANG__D61_13_SEG",
                "TANG__D62_13_SEG",
                "TANG__D63_13_SEG",
                "TANG__D64_13_SEG",
                "TANG__D65_13_SEG",
                "TANG__D66_13_SEG",
                "TANG__D67_13_SEG",
                "TANG__D68_13_SEG",
                "TANG__D69_13_SEG",
                "TANG__D70_13_SEG",
                "TANG__D71_13_SEG",
                "TANG__D72_13_SEG",
                "TANG__D1_15_SEG",
                "TANG__D2_15_SEG",
                "TANG__D3_15_SEG",
                "TANG__D4_15_SEG",
                "TANG__D5_15_SEG",
                "TANG__D6_15_SEG",
                "TANG__D7_15_SEG",
                "TANG__D8_15_SEG",
                "TANG__D9_15_SEG",
                "TANG__D10_15_SEG",
                "TANG__D11_15_SEG",
                "TANG__D12_15_SEG",
                "TANG__D13_15_SEG",
                "TANG__D14_15_SEG",
                "TANG__D1_16_SEG",
                "TANG__D2_16_SEG",
                "TANG__D3_16_SEG",
                "TANG__D4_16_SEG",
                "TANG__D5_16_SEG",
                "TANG__D6_16_SEG",
                "TANG__D7_16_SEG",
                "TANG__D8_16_SEG",
                "TANG__D9_16_SEG",
                "TANG__D10_16_SEG",
                "TANG__D11_16_SEG",
                "TANG__D12_16_SEG",
                "TANG__D13_16_SEG",
                "TANG__D14_16_SEG",
                "TANG__D1_18_SEG",
                "TANG__D2_18_SEG",
                "TANG__D3_18_SEG",
                "TANG__D4_18_SEG",
                "TANG__D5_18_SEG",
                "TANG__D6_18_SEG",
                "TANG__D7_18_SEG",
                "TANG__D8_18_SEG",
                "TANG__D9_18_SEG",
                "TANG__D10_18_SEG",
                "TANG__D11_18_SEG",
                "TANG__D12_18_SEG",
                "TANG__D13_18_SEG",
                "TANG__D14_18_SEG",
                "TANG__D15_18_SEG",
                "TANG__D16_18_SEG",
                "TANG__D17_18_SEG",
                "TANG__D18_18_SEG",
                "TANG__D19_18_SEG",
                "TANG__D20_18_SEG",
                "TANG__D21_18_SEG",
                "TANG__D22_18_SEG",
                "TANG__D23_18_SEG",
                "TANG__D24_18_SEG",
                "TANG__D25_18_SEG",
                "TANG__D26_18_SEG",
                "TANG__D27_18_SEG",
                "TANG__D1_19_SEG",
                "TANG__D2_19_SEG",
                "TANG__D3_19_SEG",
                "TANG__D4_19_SEG",
                "TANG__D5_19_SEG",
                "TANG__D6_19_SEG",
                "TANG__D7_19_SEG",
                "TANG__D8_19_SEG",
                "TANG__D9_19_SEG",
                "TANG__D10_19_SEG",
                "TANG__D11_19_SEG",
                "TANG__D12_19_SEG",
                "TANG__D13_19_SEG",
                "TANG__D14_19_SEG",
                "TANG__D15_19_SEG",
                "TANG__D16_19_SEG",
                "TANG__D17_19_SEG",
                "TANG__D18_19_SEG",
                "TANG__D19_19_SEG",
                "TANG__D20_19_SEG",
                "TANG__D21_19_SEG",
                "TANG__D22_19_SEG",
                "TANG__D23_19_SEG",
                "TANG__D24_19_SEG",
                "TANG__D25_19_SEG",
                "TANG__D26_19_SEG",
                "TANG__D27_19_SEG",
                "TANG__D28_19_SEG",
                "TANG__D29_19_SEG",
                "TANG__D30_19_SEG",
                "TANG__D31_19_SEG",
                "TANG__D32_19_SEG",
                "TANG__D33_19_SEG",
                "TANG__D34_19_SEG",
                "TANG__D35_19_SEG",
                "TANG__D36_19_SEG",
                "TANG__D37_19_SEG",
                "TANG__D38_19_SEG",
                "TANG__D39_19_SEG",
                "TANG__D40_19_SEG",
                "TANG__D41_19_SEG",
                "TANG__D42_19_SEG",
                "TANG__D43_19_SEG",
                "TANG__D44_19_SEG",
                "TANG__D45_19_SEG",
                "TANG__D46_19_SEG",
                "TANG__D47_19_SEG",
                "TANG__D48_19_SEG",
                "TANG__D49_19_SEG",
                "TANG__D1_39_SEG",
                "TANG__D2_39_SEG",
                "TANG__D3_39_SEG",
                "TANG__D4_39_SEG",
                "TANG__D5_39_SEG",
                "TANG__D6_39_SEG",
                "TANG__D7_39_SEG",
                "TANG__D8_39_SEG",
                "TANG__D9_39_SEG",
                "TANG__D10_39_SEG",
                "TANG__D11_39_SEG",
                "TANG__D12_39_SEG",
                "TANG__D13_39_SEG",
                "TANG__D14_39_SEG",
                "TANG__D15_39_SEG",
                "TANG__D16_39_SEG",
                "BRAN_21_SEG",
                "BRAN_21_SEG_B",
                "TANG__D1_22_SEG",
                "TANG__D2_22_SEG",
                "TANG__D3_22_SEG",
                "TANG__D4_22_SEG",
                "TANG__D5_22_SEG",
                "TANG__D6_22_SEG",
                "TANG__D7_22_SEG",
                "TANG__D8_22_SEG",
                "TANG__D9_22_SEG",
                "TANG__D10_22_SEG",
                "TANG__D11_22_SEG",
                "TANG__D1_23_SEG",
                "TANG__D2_23_SEG",
                "TANG__D3_23_SEG",
                "TANG__D4_23_SEG",
                "TANG__D5_23_SEG",
                "TANG__D1_25_SEG",
                "TANG__D2_25_SEG",
                "TANG__D3_25_SEG",
                "TANG__D4_25_SEG",
                "TANG__D5_25_SEG",
                "TANG__D6_25_SEG",
                "TANG__D1_26_SEG",
                "TANG__D2_26_SEG",
                "TANG__D3_26_SEG",
                "TANG__D4_26_SEG",
                "TANG__D5_26_SEG",
                "TANG__D6_26_SEG",
                "TANG__D7_26_SEG",
                "TANG__D8_26_SEG",
                "TANG__D9_26_SEG",
                "TANG__D10_26_SEG",
                "TANG__D11_26_SEG",
                "TANG__D12_26_SEG",
                "TANG__D13_26_SEG",
                "TANG__D14_26_SEG",
                "TANG__D15_26_SEG",
                "TANG__D16_26_SEG",
                "TANG__D17_26_SEG",
                "TANG__D18_26_SEG",
                "TANG__D19_26_SEG",
                "TANG__D20_26_SEG",
                "TANG__D21_26_SEG",
                "TANG__D22_26_SEG",
                "TANG__D23_26_SEG",
                "TANG__D24_26_SEG",
                "TANG__D25_26_SEG",
                "TANG__D26_26_SEG",
                "TANG__D27_26_SEG",
                "TANG__D28_26_SEG",
                "TANG__D29_26_SEG",
                "TANG__D30_26_SEG",
                "TANG__D1_28_SEG",
                "TANG__D2_28_SEG",
                "TANG__D3_28_SEG",
                "TANG__D4_28_SEG",
                "TANG__D5_28_SEG",
                "TANG__D6_28_SEG",
                "TANG__D7_28_SEG",
                "TANG__D8_28_SEG",
                "TANG__D9_28_SEG",
                "TANG__D10_28_SEG",
                "TANG__D11_28_SEG",
                "TANG__D12_28_SEG",
                "TANG__D13_28_SEG",
                "TANG__D14_28_SEG",
                "TANG__D15_28_SEG",
                "TANG__D16_28_SEG",
                "TANG__D17_28_SEG",
                "TANG__D18_28_SEG",
                "TANG__D19_28_SEG",
                "TANG__D20_28_SEG",
                "TANG__D1_29_SEG",
                "TANG__D2_29_SEG",
                "TANG__D3_29_SEG",
                "TANG__D4_29_SEG",
                "TANG__D5_29_SEG",
                "TANG__D6_29_SEG",
                "TANG__D7_29_SEG",
                "TANG__D8_29_SEG",
                "TANG__D9_29_SEG",
                "TANG__D10_29_SEG",
                "TANG__D11_29_SEG",
                "TANG__D12_29_SEG",
                "TANG__D13_29_SEG",
                "TANG__D14_29_SEG",
                "TANG__D15_29_SEG",
                "TANG__D16_29_SEG",
                "TANG__D17_29_SEG",
                "TANG__D18_29_SEG",
                "TANG__D19_29_SEG",
                "TANG__D20_29_SEG",
                "TANG__D1_31_SEG",
                "TANG__D2_31_SEG",
                "TANG__D3_31_SEG",
                "TANG__D4_31_SEG",
                "TANG__D5_31_SEG",
                "TANG__D6_31_SEG",
                "TANG__D7_31_SEG",
                "TANG__D8_31_SEG",
                "TANG__D9_31_SEG",
                "TANG__D10_31_SEG",
                "TANG__D11_31_SEG",
                "TANG__D12_31_SEG",
                "TANG__D13_31_SEG",
                "TANG__D14_31_SEG",
                "TANG__D15_31_SEG",
                "TANG__D16_31_SEG",
                "TANG__D17_31_SEG",
                "TANG__D18_31_SEG",
                "TANG__D19_31_SEG",
                "TANG__D20_31_SEG",
                "TANG__D21_31_SEG",
                "TANG__D22_31_SEG",
                "TANG__D23_31_SEG",
                "TANG__D24_31_SEG",
                "TANG__D25_31_SEG",
                "TANG__D26_31_SEG",
                "TANG__D27_31_SEG",
                "TANG__D28_31_SEG",
                "TANG__D29_31_SEG",
                "TANG__D30_31_SEG",
                "TANG__D31_31_SEG",
                "TANG__D32_31_SEG",
                "TANG__D33_31_SEG",
                "TANG__D34_31_SEG",
                "TANG__D35_31_SEG",
                "TANG__D36_31_SEG",
                "TANG__D37_31_SEG",
                "TANG__D38_31_SEG",
                "TANG__D39_31_SEG",
                "TANG__D40_31_SEG",
                "TANG__D41_31_SEG",
                "TANG__D42_31_SEG",
                "TANG__D43_31_SEG",
                "TANG__D44_31_SEG",
                "TANG__D45_31_SEG",
                "TANG__D46_31_SEG",
                "TANG__D47_31_SEG",
                "TANG__D48_31_SEG",
                "TANG__D49_31_SEG",
                "TANG__D50_31_SEG",
                "TANG__D51_31_SEG",
                "TANG__D52_31_SEG",
                "TANG__D53_31_SEG",
                "TANG__D54_31_SEG",
                "TANG__D55_31_SEG",
                "TANG__D56_31_SEG",
                "TANG__D57_31_SEG",
                "TANG__D58_31_SEG",
                "TANG__D59_31_SEG",
                "TANG__D60_31_SEG",
                "TANG_32B_SEG",
                "TANG__D1_32_SEG",
                "TANG__D2_32_SEG",
                "TANG__D3_32_SEG",
                "TANG__D4_32_SEG",
                "TANG__D5_32_SEG",
                "TANG__D6_32_SEG",
                "TANG__D7_32_SEG",
                "TANG__D8_32_SEG",
                "TANG__D1_33_SEG",
                "TANG__D2_33_SEG",
                "TANG__D3_33_SEG",
                "TANG__D4_33_SEG",
                "TANG__D5_33_SEG",
                "TANG__D6_33_SEG",
                "TANG__D7_33_SEG",
                "TANG__D8_33_SEG",
                "TANG__D9_33_SEG",
                "TANG__D10_33_SEG",
                "TANG__D1_34_SEG",
                "TANG__D2_34_SEG",
                "TANG__D3_34_SEG",
                "TANG__D4_34_SEG",
                "TANG__D5_34_SEG",
                "TANG__D6_34_SEG",
                "TANG__D7_34_SEG",
                "TANG__D8_34_SEG",
                "TANG__D9_34_SEG",
                "TANG__D10_34_SEG",
                "TANG__D11_34_SEG",
                "TANG__D12_34_SEG",
                "TANG__D13_34_SEG",
                "TANG__D14_34_SEG",
                "TANG__D15_34_SEG",
                "TANG__D16_34_SEG",
                "TANG__D17_34_SEG",
                "TANG__D18_34_SEG",
                "TANG__D19_34_SEG",
                "TANG__D20_34_SEG",
                "TANG__D21_34_SEG",
                "TANG__D22_34_SEG",
                "TANG__D23_34_SEG",
                "TANG__D24_34_SEG",
                "TANG__D1_35_SEG",
                "TANG__D2_35_SEG",
                "TANG__D3_35_SEG",
                "TANG__D4_35_SEG",
                "TANG__D5_35_SEG",
                "TANG__D6_35_SEG",
                "TANG__D7_35_SEG",
                "TANG__D8_35_SEG",
                "TANG__D9_35_SEG",
                "TANG__D10_35_SEG",
                "TANG__D11_35_SEG",
                "TANG__D12_35_SEG",
                "TANG__D13_35_SEG",
                "TANG__D14_35_SEG",
                "TANG__D15_35_SEG",
                "TANG__D16_35_SEG",
                "TANG__D17_35_SEG",
                "TANG__D18_35_SEG",
                "TANG__D19_35_SEG",
                "TANG__D20_35_SEG",
                "TANG__D21_35_SEG",
                "TANG__D22_35_SEG",
                "TANG__D23_35_SEG",
                "TANG__D24_35_SEG",
                "TANG__D25_35_SEG",
                "TANG__D26_35_SEG",
                "TANG__D27_35_SEG",
                "TANG__D28_35_SEG",
                "TANG__D29_35_SEG",
                "TANG__D30_35_SEG",
                "TANG__D31_35_SEG",
                "TANG__D32_35_SEG",
                "TANG__D33_35_SEG",
                "TANG__D34_35_SEG",
                "TANG__D35_35_SEG",
                "TANG__D36_35_SEG",
                "TANG__D37_35_SEG",
                "TANG__D38_35_SEG",
                "TANG__D39_35_SEG",
                "TANG__D40_35_SEG",
                "TANG__D41_35_SEG",
                "TANG__D42_35_SEG",
                "TANG__D43_35_SEG",
                "TANG__D44_35_SEG",
                "TANG__D45_35_SEG",
                "TANG__D46_35_SEG",
                "TANG__D47_35_SEG",
                "TANG__D48_35_SEG",
                "TANG__D49_35_SEG",
                "TANG__D50_35_SEG",
                "TANG__D51_35_SEG",
                "TANG__D52_35_SEG",
                "TANG__D53_35_SEG",
                "TANG__D54_35_SEG",
                "TANG__D55_35_SEG",
                "TANG__D56_35_SEG",
                "TANG__D57_35_SEG",
                "TANG__D58_35_SEG",
                "TANG__D59_35_SEG",
                "TANG__D60_35_SEG",
                "TANG__D61_35_SEG",
                "TANG__D62_35_SEG",
                "TANG__D63_35_SEG",
                "TANG__D64_35_SEG",
                "TANG__D65_35_SEG",
                "TANG__D66_35_SEG",
                "TANG__D67_35_SEG",
                "TANG__D68_35_SEG",
                "TANG__D69_35_SEG",
                "TANG__D70_35_SEG",
                "TANG__D71_35_SEG",
                "TANG__D72_35_SEG",
                "TANG__D1_37_SEG",
                "TANG__D2_37_SEG",
                "TANG__D3_37_SEG",
                "TANG__D4_37_SEG",
                "TANG__D5_37_SEG",
                "TANG__D6_37_SEG",
                "TANG__D7_37_SEG",
                "TANG__D8_37_SEG",
                "TANG__D9_37_SEG",
                "TANG__D10_37_SEG",
                "TANG__D11_37_SEG",
                "TANG__D12_37_SEG",
                "TANG__D13_37_SEG",
                "TANG__D14_37_SEG",
                "TANG__D15_37_SEG",
                "TANG__D16_37_SEG",
                "TANG__D17_37_SEG",
                "TANG__D18_37_SEG",
                "TANG__D19_37_SEG",
                "TANG__D20_37_SEG",
                "TANG__D21_37_SEG",
                "TANG__D22_37_SEG",
                "TANG__D23_37_SEG",
                "TANG__D24_37_SEG",
                "TANG__D25_37_SEG",
                "TANG__D26_37_SEG",
                "TANG__D27_37_SEG",
                "TANG__D28_37_SEG",
                "TANG__D29_37_SEG",
                "TANG__D30_37_SEG",
                "TANG__D31_37_SEG",
                "TANG__D32_37_SEG",
                "TANG__D33_37_SEG",
                "TANG__D34_37_SEG",
                "TANG__D35_37_SEG",
                "TANG__D36_37_SEG",
                "TANG__D37_37_SEG",
                "TANG__D38_37_SEG",
                "TANG__D39_37_SEG",
                "TANG__D40_37_SEG",
                "TANG__D41_37_SEG",
                "TANG__D42_37_SEG",
                "TANG__D43_37_SEG",
                "TANG__D44_37_SEG",
                "TANG__D45_37_SEG",
                "TANG__D46_37_SEG",
                "TANG__D47_37_SEG",
                "TANG__D48_37_SEG",
                "TANG__D49_37_SEG",
                "TANG__D50_37_SEG",
                "TANG__D51_37_SEG",
                "TANG__D52_37_SEG",
                "TANG__D53_37_SEG",
                "TANG__D54_37_SEG",
                "TANG__D55_37_SEG",
                "TANG__D56_37_SEG",
                "TANG__D57_37_SEG",
                "TANG__D58_37_SEG",
                "TANG__D59_37_SEG",
                "TANG__D60_37_SEG",
                "TANG__D61_37_SEG",
                "TANG__D62_37_SEG",
                "TANG__D63_37_SEG",
                "TANG__D64_37_SEG",
                "TANG__D65_37_SEG",
                "TANG__D66_37_SEG",
                "TANG__D67_37_SEG",
                "TANG__D68_37_SEG",
                "TANG__D69_37_SEG",
                "TANG__D70_37_SEG",
                "TANG__D71_37_SEG",
                "TANG__D72_37_SEG",
                "TANG__D1_38_SEG",
                "TANG__D2_38_SEG",
                "TANG__D3_38_SEG",
                "TANG__D4_38_SEG",
                "TANG__D5_38_SEG",
                "TANG__D6_38_SEG",
                "TANG__D7_38_SEG",
                "TANG__D8_38_SEG",
                "TANG__D9_38_SEG",
                "TANG__D10_38_SEG",
                "TANG__D11_38_SEG",
                "TANG__D12_38_SEG",
                "TANG__D13_38_SEG",
                "TANG__D14_38_SEG",
                "TANG__D15_38_SEG",
                "TANG__D16_38_SEG",
                "TANG__D17_38_SEG",
                "TANG__D18_38_SEG",
                "TANG__D19_38_SEG",
                "TANG__D20_38_SEG",
                "TANG__D21_38_SEG",
                "TANG__D22_38_SEG",
                "TANG__D23_38_SEG",
                "TANG__D24_38_SEG",
                "TANG__D25_38_SEG",
                "TANG__D26_38_SEG",
                "TANG__D27_38_SEG",
                "TANG__D28_38_SEG",
                "TANG__D29_38_SEG",
                "TANG__D30_38_SEG",
                "TANG__D31_38_SEG",
                "TANG__D32_38_SEG",
                "TANG__D33_38_SEG",
                "TANG__D34_38_SEG",
                "TANG__D35_38_SEG",
                "TANG__D36_38_SEG",
                "TANG__D37_38_SEG",
                "TANG__D38_38_SEG",
                "TANG__D39_38_SEG",
                "TANG__D40_38_SEG",
                "TANG__D41_38_SEG",
                "TANG__D42_38_SEG",
                "TANG__D43_38_SEG",
                "TANG__D44_38_SEG",
                "TANG__D45_38_SEG",
                "TANG__D46_38_SEG",
                "TANG__D47_38_SEG",
                "TANG__D48_38_SEG",
                "TANG__D49_38_SEG",
                "TANG__D50_38_SEG",
                "TANG__D51_38_SEG",
                "TANG__D52_38_SEG",
                "TANG__D53_38_SEG",
                "TANG__D54_38_SEG",
                "TANG__D55_38_SEG",
                "TANG__D56_38_SEG",
                "TANG__D57_38_SEG",
                "TANG__D58_38_SEG",
                "TANG__D59_38_SEG",
                "TANG__D60_38_SEG",
                "TANG__D61_38_SEG",
                "TANG__D62_38_SEG",
                "TANG__D63_38_SEG",
                "TANG__D64_38_SEG",
                "TANG__D65_38_SEG",
                "TANG__D66_38_SEG",
                "TANG__D67_38_SEG",
                "TANG__D68_38_SEG",
                "TANG__D69_38_SEG",
                "TANG__D70_38_SEG",
                "TANG__D71_38_SEG",
                "TANG__D72_38_SEG",
            ],
            PHENOMENE="MECANIQUE",
            MODELISATION="POU_D_T",
        ),
        _F(
            GROUP_MA=[
                "BRAD__D1_3_SEG",
                "BRAD__D2_3_SEG",
                "BRAD__D3_3_SEG",
                "BRAD__D4_3_SEG",
                "BRAD__D5_3_SEG",
                "BRAD__D6_3_SEG",
                "BRAD__D7_3_SEG",
                "BRAD__D8_3_SEG",
                "BRAD__D9_3_SEG",
                "BRAD__D10_3_SEG",
                "BRAD__D11_3_SEG",
                "BRAD__D12_3_SEG",
                "BRAD__D13_3_SEG",
                "BRAD__D14_3_SEG",
                "BRAD__D15_3_SEG",
                "BRAD__D16_3_SEG",
                "BRAD__D17_3_SEG",
                "BRAD__D18_3_SEG",
                "BRAD__D19_3_SEG",
                "BRAD__D20_3_SEG",
                "BRAD__D21_3_SEG",
                "BRAD__D22_3_SEG",
                "BRAD__D23_3_SEG",
                "BRAD__D24_3_SEG",
                "BRAD_3_SEG",
                "BRAD__D1_6_SEG",
                "BRAD__D2_6_SEG",
                "BRAD__D3_6_SEG",
                "BRAD__D4_6_SEG",
                "BRAD__D5_6_SEG",
                "BRAD__D6_6_SEG",
                "BRAD__D7_6_SEG",
                "BRAD__D8_6_SEG",
                "BRAD__D9_6_SEG",
                "BRAD__D10_6_SEG",
                "BRAD__D11_6_SEG",
                "BRAD__D12_6_SEG",
                "BRAD__D13_6_SEG",
                "BRAD__D14_6_SEG",
                "BRAD__D15_6_SEG",
                "BRAD__D16_6_SEG",
                "BRAD__D17_6_SEG",
                "BRAD__D18_6_SEG",
                "BRAD__D19_6_SEG",
                "BRAD__D20_6_SEG",
                "BRAD__D21_6_SEG",
                "BRAD__D22_6_SEG",
                "BRAD__D23_6_SEG",
                "BRAD__D24_6_SEG",
                "BRAD_6_SEG",
                "BRAD__D1_8_SEG",
                "BRAD__D2_8_SEG",
                "BRAD__D3_8_SEG",
                "BRAD__D4_8_SEG",
                "BRAD__D5_8_SEG",
                "BRAD__D6_8_SEG",
                "BRAD__D7_8_SEG",
                "BRAD__D8_8_SEG",
                "BRAD__D9_8_SEG",
                "BRAD__D10_8_SEG",
                "BRAD__D11_8_SEG",
                "BRAD__D12_8_SEG",
                "BRAD__D13_8_SEG",
                "BRAD__D14_8_SEG",
                "BRAD__D15_8_SEG",
                "BRAD__D16_8_SEG",
                "BRAD__D17_8_SEG",
                "BRAD__D18_8_SEG",
                "BRAD__D19_8_SEG",
                "BRAD__D20_8_SEG",
                "BRAD__D21_8_SEG",
                "BRAD__D22_8_SEG",
                "BRAD__D23_8_SEG",
                "BRAD__D24_8_SEG",
                "BRAD_8_SEG",
                "BRAD__D1_14_SEG",
                "BRAD__D2_14_SEG",
                "BRAD__D3_14_SEG",
                "BRAD__D4_14_SEG",
                "BRAD__D5_14_SEG",
                "BRAD__D6_14_SEG",
                "BRAD__D7_14_SEG",
                "BRAD__D8_14_SEG",
                "BRAD__D9_14_SEG",
                "BRAD__D10_14_SEG",
                "BRAD__D11_14_SEG",
                "BRAD__D12_14_SEG",
                "BRAD__D13_14_SEG",
                "BRAD__D14_14_SEG",
                "BRAD__D15_14_SEG",
                "BRAD__D16_14_SEG",
                "BRAD__D17_14_SEG",
                "BRAD__D18_14_SEG",
                "BRAD__D19_14_SEG",
                "BRAD__D20_14_SEG",
                "BRAD__D21_14_SEG",
                "BRAD__D22_14_SEG",
                "BRAD__D23_14_SEG",
                "BRAD__D24_14_SEG",
                "BRAD_14_SEG",
                "BRAD__D1_17_SEG",
                "BRAD__D2_17_SEG",
                "BRAD__D3_17_SEG",
                "BRAD__D4_17_SEG",
                "BRAD__D5_17_SEG",
                "BRAD__D6_17_SEG",
                "BRAD__D7_17_SEG",
                "BRAD__D8_17_SEG",
                "BRAD__D9_17_SEG",
                "BRAD__D10_17_SEG",
                "BRAD__D11_17_SEG",
                "BRAD__D12_17_SEG",
                "BRAD__D13_17_SEG",
                "BRAD__D14_17_SEG",
                "BRAD__D15_17_SEG",
                "BRAD__D16_17_SEG",
                "BRAD__D17_17_SEG",
                "BRAD__D18_17_SEG",
                "BRAD__D19_17_SEG",
                "BRAD__D20_17_SEG",
                "BRAD__D21_17_SEG",
                "BRAD__D22_17_SEG",
                "BRAD__D23_17_SEG",
                "BRAD__D24_17_SEG",
                "BRAD_17_SEG",
                "BRAD__D1_20_SEG",
                "BRAD__D2_20_SEG",
                "BRAD__D3_20_SEG",
                "BRAD__D4_20_SEG",
                "BRAD__D5_20_SEG",
                "BRAD__D6_20_SEG",
                "BRAD__D7_20_SEG",
                "BRAD__D8_20_SEG",
                "BRAD__D9_20_SEG",
                "BRAD__D10_20_SEG",
                "BRAD__D11_20_SEG",
                "BRAD__D12_20_SEG",
                "BRAD__D13_20_SEG",
                "BRAD__D14_20_SEG",
                "BRAD__D15_20_SEG",
                "BRAD__D16_20_SEG",
                "BRAD__D17_20_SEG",
                "BRAD__D18_20_SEG",
                "BRAD__D19_20_SEG",
                "BRAD__D20_20_SEG",
                "BRAD__D21_20_SEG",
                "BRAD__D22_20_SEG",
                "BRAD__D23_20_SEG",
                "BRAD__D24_20_SEG",
                "BRAD_20_SEG",
                "BRAD__D1_24_SEG",
                "BRAD__D2_24_SEG",
                "BRAD__D3_24_SEG",
                "BRAD__D4_24_SEG",
                "BRAD__D5_24_SEG",
                "BRAD__D6_24_SEG",
                "BRAD__D7_24_SEG",
                "BRAD__D8_24_SEG",
                "BRAD__D9_24_SEG",
                "BRAD__D10_24_SEG",
                "BRAD__D11_24_SEG",
                "BRAD__D12_24_SEG",
                "BRAD__D13_24_SEG",
                "BRAD__D14_24_SEG",
                "BRAD__D15_24_SEG",
                "BRAD__D16_24_SEG",
                "BRAD__D17_24_SEG",
                "BRAD__D18_24_SEG",
                "BRAD__D19_24_SEG",
                "BRAD__D20_24_SEG",
                "BRAD__D21_24_SEG",
                "BRAD__D22_24_SEG",
                "BRAD__D23_24_SEG",
                "BRAD__D24_24_SEG",
                "BRAD_24_SEG",
                "BRAD__D1_27_SEG",
                "BRAD__D2_27_SEG",
                "BRAD__D3_27_SEG",
                "BRAD__D4_27_SEG",
                "BRAD__D5_27_SEG",
                "BRAD__D6_27_SEG",
                "BRAD__D7_27_SEG",
                "BRAD__D8_27_SEG",
                "BRAD__D9_27_SEG",
                "BRAD__D10_27_SEG",
                "BRAD__D11_27_SEG",
                "BRAD__D12_27_SEG",
                "BRAD__D13_27_SEG",
                "BRAD__D14_27_SEG",
                "BRAD__D15_27_SEG",
                "BRAD__D16_27_SEG",
                "BRAD__D17_27_SEG",
                "BRAD__D18_27_SEG",
                "BRAD__D19_27_SEG",
                "BRAD__D20_27_SEG",
                "BRAD__D21_27_SEG",
                "BRAD__D22_27_SEG",
                "BRAD__D23_27_SEG",
                "BRAD__D24_27_SEG",
                "BRAD_27_SEG",
                "BRAD__D1_30_SEG",
                "BRAD__D2_30_SEG",
                "BRAD__D3_30_SEG",
                "BRAD__D4_30_SEG",
                "BRAD__D5_30_SEG",
                "BRAD__D6_30_SEG",
                "BRAD__D7_30_SEG",
                "BRAD__D8_30_SEG",
                "BRAD__D9_30_SEG",
                "BRAD__D10_30_SEG",
                "BRAD__D11_30_SEG",
                "BRAD__D12_30_SEG",
                "BRAD__D13_30_SEG",
                "BRAD__D14_30_SEG",
                "BRAD__D15_30_SEG",
                "BRAD__D16_30_SEG",
                "BRAD__D17_30_SEG",
                "BRAD__D18_30_SEG",
                "BRAD__D19_30_SEG",
                "BRAD__D20_30_SEG",
                "BRAD__D21_30_SEG",
                "BRAD__D22_30_SEG",
                "BRAD__D23_30_SEG",
                "BRAD__D24_30_SEG",
                "BRAD_30_SEG",
                "BRAD__D1_36_SEG",
                "BRAD__D2_36_SEG",
                "BRAD__D3_36_SEG",
                "BRAD__D4_36_SEG",
                "BRAD__D5_36_SEG",
                "BRAD__D6_36_SEG",
                "BRAD__D7_36_SEG",
                "BRAD__D8_36_SEG",
                "BRAD__D9_36_SEG",
                "BRAD__D10_36_SEG",
                "BRAD__D11_36_SEG",
                "BRAD__D12_36_SEG",
                "BRAD__D13_36_SEG",
                "BRAD__D14_36_SEG",
                "BRAD__D15_36_SEG",
                "BRAD__D16_36_SEG",
                "BRAD__D17_36_SEG",
                "BRAD__D18_36_SEG",
                "BRAD__D19_36_SEG",
                "BRAD__D20_36_SEG",
                "BRAD__D21_36_SEG",
                "BRAD__D22_36_SEG",
                "BRAD__D23_36_SEG",
                "BRAD__D24_36_SEG",
                "BRAD_36_SEG",
            ],
            PHENOMENE="MECANIQUE",
            MODELISATION="POU_D_T",
        ),
        _F(GROUP_MA="ANCH_PT_1", PHENOMENE="MECANIQUE", MODELISATION="DIS_TR"),
        _F(GROUP_MA="ANCH_PT_1_R", PHENOMENE="MECANIQUE", MODELISATION="DIS_TR"),
        _F(GROUP_MA="RSTN_PT_4", PHENOMENE="MECANIQUE", MODELISATION="DIS_T"),
        _F(GROUP_MA="RSTN_PT_4_R", PHENOMENE="MECANIQUE", MODELISATION="DIS_TR"),
        _F(GROUP_MA="RSTN_PT_4_", PHENOMENE="MECANIQUE", MODELISATION="DIS_T"),
[...]
*                                         'BLDG_2.0': ['LV_003']}
*     > comb_mode         : CQC
*     > comb_dir          : QUAD
*     > bldg_corr         : True
*     > comb_multi_level  : QUAD
* -------------------------------------------------------------------

* -------------------------------------------------------------------
* Multi support spectral loading based on spectra in NUREG/CR-6645
* -------------------------------------------------------------------
SPEC BT=1 EV=1 FP=0 ME=2 TD=0 TI=/SPEC-MULTI-APPUI/
     LV=1 * Corresponds to the 1% spectrum in NUREG/CR-6645
     PH=1
      DI=XYZ

        0.20389/0.06986
        0.21673/0.07588
        0.23039/0.08751
        0.24490/0.09521
        0.26033/0.10908
        0.27674/0.12240
        0.29417/0.12954
        0.31270/0.13948
        0.33239/0.14100
        0.35330/0.13634
        0.37554/0.13448
        0.39918/0.13881
        0.42433/0.14931
        0.45108/0.16713
        0.47952/0.18606
        0.50978/0.21905
        0.54199/0.26552
        0.57626/0.32099
        0.61264/0.35847
        0.65129/0.38696
        0.69232/0.39690
        0.73591/0.39786
        0.78217/0.38195
        0.83140/0.38122
        0.88382/0.40241
        0.92956/0.50780
        0.96433/0.64494
        1.01144/0.75305
        1.07479/0.69332
        1.14201/0.61335
        1.20358/0.59364
        1.26285/0.75720
        1.32127/0.93060
        1.39731/1.02621
        1.42955/1.15362
        1.45860/1.29971
        1.49624/1.46707
        1.54529/1.34444
        1.56256/1.19110
        1.59187/1.01580
        1.62009/0.92880
        1.67378/0.87933
        1.71113/0.91545
        1.74383/1.09943
        1.76639/1.29963
        1.78765/1.48024
        1.81475/1.64260
        1.86270/1.81150
        1.89735/1.91326
        1.95966/1.80282
        1.98288/1.68576
        2.00935/1.55813
        2.05416/1.35060
        2.09866/1.15289
        2.14819/1.60370
        2.15276/1.46765
        2.15555/1.73809
        2.16605/1.91606
        2.17967/2.15801
        2.18817/2.41250
        2.21411/2.69291
        2.29849/2.83327
        2.35008/2.97833
        2.39315/3.12838
        2.42343/3.34380
        2.43694/3.60401
        2.45303/3.81901
        2.46157/3.96545
        2.48429/4.14586
        2.50064/4.35679
        2.53312/4.54080
        2.59543/4.67570
        2.64507/4.82455
        2.67768/4.96577
        2.71508/5.14723
        2.73326/5.40797
        2.73935/5.54681
        2.74430/5.71013
        2.75961/5.99824
        2.76324/6.28788
        2.77440/6.65766
        2.78274/6.97659
        2.82371/7.45284
        2.85973/6.81631
        2.86151/6.47113
        2.86906/6.13587
        2.87415/5.87035
        2.87991/5.16298
        2.88628/5.33449
        2.89387/5.68165
        2.89498/4.99750
        2.89666/5.50442
        2.90094/4.65435
        2.90283/4.79035
        2.92760/4.24718
        2.99257/4.51615
        3.03250/4.60578
        3.10464/4.33969
        3.15407/4.16214
        3.25851/4.01149
        3.33027/3.95012
        3.48136/4.07113
        3.49815/3.76533
        3.49899/3.58371
        3.52122/3.39978
        3.54803/3.01370
        3.55025/3.18308
        3.56524/2.86523
        3.58356/2.67737
        3.61427/2.47285
        3.66317/2.29891
        3.80583/2.10583
        3.91416/2.25158
        4.02417/2.32416
        4.07982/2.04758
        4.11784/1.89902
        4.15031/1.71781
        4.19928/1.54623
        4.35202/1.39710
        4.61521/1.37450
        4.79912/1.38141
        4.98510/1.31963
        5.21765/1.69671
        5.40939/1.50377
        5.45030/1.33876
        5.56483/1.17484
        5.72087/1.02657
        5.83133/0.88133
        6.03994/0.77139
        6.41851/0.71896
        6.82282/0.72778
        7.25168/0.71020
        7.70627/0.65945
        7.95508/0.61460
        8.19269/0.69356
        8.45415/0.74746
        8.97246/0.59986
        9.48110/0.68406
        9.95632/0.60985
        10.46331/0.69416
        10.99038/0.62158
        11.68067/0.59444
        12.41561/0.58921
        13.19779/0.59972
        14.02800/0.59168
        14.91107/0.59264
        15.84777/0.56774
        16.84500/0.56364
        17.90478/0.55729
        19.03216/0.56105
        20.23031/0.56257
        21.50342/0.55959
        22.85628/0.55324
        24.29471/0.55083
        25.82388/0.55009
        27.44937/0.54992
        29.17694/0.54807
        31.01407/0.55183
        32.96608/0.55054
        34.08211/0.54984

     LV=2 * Corresponds to the 5% spectrum in NUREG/CR-6645
     PH=1
      DI=XYZ
        0.19991/0.04846
        0.20662/0.05340
        0.21354/0.05735
        0.22070/0.06262
        0.22810/0.06690
        0.23575/0.07118
        0.24366/0.07414
        0.25183/0.08139
        0.26027/0.08534
        0.26900/0.08896
        0.27802/0.09324
        0.28734/0.09621
        0.29697/0.09950
        0.30692/0.10016
        0.31720/0.10148
        0.32783/0.10279
        0.33881/0.10181
        0.35017/0.10279
        0.36190/0.10279
        0.37402/0.10214
        0.38655/0.10279
        0.39951/0.10444
        0.41290/0.10740
        0.42674/0.11169
        0.44105/0.11630
        0.45584/0.12157
        0.47113/0.12716
        0.48694/0.13704
        0.50328/0.14659
        0.51998/0.15944
        0.53730/0.17574
        0.55591/0.19413
        0.57482/0.21328
        0.59257/0.22973
        0.61368/0.24473
        0.63428/0.25560
        0.65556/0.26383
        0.67756/0.27108
        0.70028/0.27767
        0.72377/0.28293
        0.74803/0.28590
        0.77310/0.28886
        0.79899/0.28590
        0.82570/0.27569
        0.85331/0.26515
        0.88189/0.26449
        0.90950/0.27622
        0.93154/0.30396
        0.94754/0.32904
        0.96380/0.35280
        0.98587/0.37723
        1.01253/0.39952
        1.04217/0.42314
        1.07489/0.44441
        1.10900/0.46373
        1.14946/0.48514
        1.18804/0.49436
        1.22779/0.48876
        1.26886/0.47954
        1.31028/0.49337
        1.33719/0.52499
        1.36462/0.55199
        1.38576/0.58540
        1.41011/0.61108
        1.42634/0.63885
        1.45101/0.66782
        1.46553/0.69294
        1.49066/0.71440
        1.53999/0.71402
        1.59373/0.70949
        1.63459/0.73312
        1.64991/0.76171
        1.66839/0.78621
        1.69109/0.81517
        1.69981/0.84377
        1.70633/0.87117
        1.72225/0.89251
        1.72781/0.92062
        1.73876/0.95607
        1.74389/0.98802
        1.75549/1.02416
        1.76718/1.06179
        1.77558/1.08892
        1.78893/1.11612
        1.79443/1.14741
        1.81832/1.18605
        1.83913/1.22571
        1.86310/1.25835
        1.90313/1.27020
        1.92143/1.24423
        1.93884/1.21533
        1.95050/1.18535
        1.97173/1.15927
        1.98228/1.13437
        1.99848/1.11777
        2.06558/1.12938
        2.10605/1.15927
        2.11820/1.20175
        2.12438/1.22842
        2.12886/1.25214
        2.13161/1.33513
        2.13678/1.28177
        2.14108/1.31141
        2.15551/1.36180
        2.16547/1.39677
        2.16881/1.46949
        2.17409/1.41811
        2.18042/1.44454
        2.19578/1.49408
        2.20571/1.53338
        2.21827/1.56368
        2.24329/1.60114
        2.25820/1.63712
        2.26892/1.66247
        2.29835/1.68358
        2.39564/1.65884
        2.39749/1.69475
        2.42431/1.71747
        2.43171/1.76687
        2.43255/1.82318
        2.43365/1.74744
        2.43886/1.79806
        2.44621/1.84097
        2.45344/1.87406
        2.46370/1.91475
        2.47486/1.94816
        2.47520/1.97039
        2.47861/2.00299
        2.48984/2.03659
        2.49773/2.10443
        2.50028/2.07215
        2.51500/2.13385
        2.51939/2.16897
        2.52677/2.19828
        2.52728/2.23136
        2.53782/2.27003
        2.55012/2.35471
        2.55163/2.30202
        2.56026/2.33026
        2.56446/2.37348
        2.56483/2.39720
        2.57555/2.43015
        2.58002/2.46438
        2.58040/2.48809
        2.58858/2.55626
        2.59369/2.51970
        2.60673/2.57627
        2.60944/2.61159
        2.62571/2.63974
        2.63565/2.70248
        2.63670/2.67372
        2.65202/2.72290
        2.66396/2.75899
        2.67319/2.78547
        2.70793/2.83152
        2.75973/2.78665
        2.76173/2.81511
        2.80107/2.74020
        2.84539/2.75577
        2.90681/2.79483
        2.95728/2.77625
        2.96009/2.75188
        2.99171/2.72356
        3.00213/2.69359
        3.02316/2.65901
        3.02352/2.62739
        3.04576/2.59437
        3.05237/2.56416
        3.06036/2.54243
        3.06267/2.51641
        3.07790/2.48908
        3.07847/2.45977
        3.09375/2.43138
        3.10014/2.40955
        3.10648/2.38475
        3.12830/2.34907
        3.14099/2.30531
        3.14484/2.28141
        3.15746/2.26283
        3.15983/2.23583
        3.16813/2.18636
        3.17385/2.21146
        3.19028/2.15811
        3.20729/2.12946
        3.20970/2.10311
        3.22393/2.07808
        3.23234/2.05516
        3.24946/2.02106
        3.26367/1.98620
        3.28103/1.95590
        3.31984/1.93305
        3.38523/1.91521
        3.45177/1.89065
        3.46744/1.86152
        3.48600/1.83662
        3.50726/1.80484
        3.51669/1.77346
        3.53230/1.74958
        3.56089/1.72043
        3.57651/1.68816
        3.59873/1.65325
        3.62427/1.61242
        3.64086/1.58093
        3.66962/1.55050
        3.67569/1.52165
        3.69517/1.48812
        3.71481/1.45684
        3.73465/1.42997
        3.77815/1.39920
        3.83078/1.38528
        3.96212/1.41971
        4.03700/1.40705
        4.07273/1.38123
        4.12930/1.35439
        4.18206/1.32976
        4.30150/1.31565
        4.41393/1.30125
        4.48668/1.28008
        4.58192/1.25101
        4.64632/1.22408
        4.70652/1.19656
        4.74794/1.16994
        4.79967/1.14583
        4.82148/1.11777
        4.87756/1.08418
        4.91699/1.05405
        4.97813/1.02907
        5.12357/1.04795
        5.19894/1.07228
        5.34925/1.04043
        5.39463/1.01051
        5.48168/0.98217
        5.54508/0.95443
        5.60545/0.92907
        5.65098/0.90476
        5.71263/0.88303
        5.76951/0.85662
        5.82932/0.82212
        5.87481/0.79095
        5.94835/0.75988
        6.04856/0.73331
        6.21376/0.71349
        6.38580/0.68919
        6.55662/0.66528
        6.70490/0.64439
        6.93190/0.63630
        7.16357/0.62346
        7.40347/0.62148
        7.65131/0.61753
        7.90729/0.61028
        8.17170/0.60040
        8.44802/0.58596
        8.63912/0.56582
        8.86026/0.55068
        9.16823/0.55700
        9.41187/0.57982
        9.74115/0.58986
        10.06769/0.59316
        10.40552/0.60172
        10.75410/0.60139
        11.11409/0.59711
        11.48584/0.58888
        11.87006/0.58097
        12.26738/0.57636
        12.67838/0.57669
        13.10331/0.57900
        13.54254/0.58196
        13.99626/0.58229
        14.46504/0.58097
        14.94910/0.57505
        15.44926/0.56813
        15.96628/0.56253
        16.50071/0.55792
        17.05323/0.55529
        17.62408/0.55100
        18.21447/0.55068
        18.82469/0.55068
        19.45558/0.55265
        20.10786/0.55660
        20.78120/0.55430
        21.47693/0.55068
        22.19644/0.55068
        22.94005/0.55068
        23.70829/0.54870
        24.50245/0.54804
        25.32322/0.54738
        26.17169/0.54804
        27.04854/0.54837
        27.95465/0.54804
        28.89111/0.54771
        29.85865/0.54574
        30.85877/0.54475
        31.89258/0.54475
        32.96110/0.54508
        33.97194/0.54514

     LV=3  * Same as LV=1 // corresponds to the 1% spectrum NUREG/CR-6645
     PH=2
      DI=XYZ

        0.20389/0.06986
        0.21673/0.07588
        0.23039/0.08751
        0.24490/0.09521
        0.26033/0.10908
        0.27674/0.12240
        0.29417/0.12954
        0.31270/0.13948
        0.33239/0.14100
        0.35330/0.13634
        0.37554/0.13448
        0.39918/0.13881
        0.42433/0.14931
        0.45108/0.16713
        0.47952/0.18606
        0.50978/0.21905
        0.54199/0.26552
        0.57626/0.32099
        0.61264/0.35847
        0.65129/0.38696
        0.69232/0.39690
        0.73591/0.39786
        0.78217/0.38195
        0.83140/0.38122
        0.88382/0.40241
        0.92956/0.50780
        0.96433/0.64494
        1.01144/0.75305
        1.07479/0.69332
        1.14201/0.61335
        1.20358/0.59364
        1.26285/0.75720
        1.32127/0.93060
        1.39731/1.02621
        1.42955/1.15362
        1.45860/1.29971
        1.49624/1.46707
        1.54529/1.34444
        1.56256/1.19110
        1.59187/1.01580
        1.62009/0.92880
        1.67378/0.87933
        1.71113/0.91545
        1.74383/1.09943
        1.76639/1.29963
        1.78765/1.48024
        1.81475/1.64260
        1.86270/1.81150
        1.89735/1.91326
        1.95966/1.80282
        1.98288/1.68576
        2.00935/1.55813
        2.05416/1.35060
        2.09866/1.15289
        2.14819/1.60370
        2.15276/1.46765
        2.15555/1.73809
        2.16605/1.91606
        2.17967/2.15801
        2.18817/2.41250
        2.21411/2.69291
        2.29849/2.83327
        2.35008/2.97833
        2.39315/3.12838
        2.42343/3.34380
        2.43694/3.60401
        2.45303/3.81901
        2.46157/3.96545
        2.48429/4.14586
        2.50064/4.35679
        2.53312/4.54080
        2.59543/4.67570
        2.64507/4.82455
        2.67768/4.96577
        2.71508/5.14723
        2.73326/5.40797
        2.73935/5.54681
        2.74430/5.71013
        2.75961/5.99824
        2.76324/6.28788
        2.77440/6.65766
        2.78274/6.97659
        2.82371/7.45284
        2.85973/6.81631
        2.86151/6.47113
        2.86906/6.13587
        2.87415/5.87035
        2.87991/5.16298
        2.88628/5.33449
        2.89387/5.68165
        2.89498/4.99750
        2.89666/5.50442
        2.90094/4.65435
        2.90283/4.79035
        2.92760/4.24718
        2.99257/4.51615
        3.03250/4.60578
        3.10464/4.33969
        3.15407/4.16214
        3.25851/4.01149
        3.33027/3.95012
        3.48136/4.07113
        3.49815/3.76533
        3.49899/3.58371
        3.52122/3.39978
        3.54803/3.01370
        3.55025/3.18308
        3.56524/2.86523
        3.58356/2.67737
        3.61427/2.47285
        3.66317/2.29891
        3.80583/2.10583
        3.91416/2.25158
        4.02417/2.32416
        4.07982/2.04758
        4.11784/1.89902
        4.15031/1.71781
        4.19928/1.54623
        4.35202/1.39710
        4.61521/1.37450
        4.79912/1.38141
        4.98510/1.31963
        5.21765/1.69671
        5.40939/1.50377
        5.45030/1.33876
        5.56483/1.17484
        5.72087/1.02657
        5.83133/0.88133
        6.03994/0.77139
        6.41851/0.71896
        6.82282/0.72778
        7.25168/0.71020
        7.70627/0.65945
        7.95508/0.61460
        8.19269/0.69356
        8.45415/0.74746
        8.97246/0.59986
        9.48110/0.68406
        9.95632/0.60985
        10.46331/0.69416
        10.99038/0.62158
        11.68067/0.59444
        12.41561/0.58921
        13.19779/0.59972
        14.02800/0.59168
        14.91107/0.59264
        15.84777/0.56774
        16.84500/0.56364
        17.90478/0.55729
        19.03216/0.56105
        20.23031/0.56257
        21.50342/0.55959
        22.85628/0.55324
        24.29471/0.55083
        25.82388/0.55009
        27.44937/0.54992
        29.17694/0.54807
        31.01407/0.55183
        32.96608/0.55054
        34.08211/0.54984


*----------------------------------------------
* Material properties
* -------------------------------------------------------------------
MATH CD=101  EX=1 TY=4 TX=300 TA=70 KL=1 * Note temperateure is F
MATD TE=70   EH=29   SH=20.  EX=6.44     * EH range : 10->40 (x1E6 psi)
MATD TE=300  EH=29   SH=20.  EX=6.44     *

* -------------------------------------------------------------------
* Section properties
* -------------------------------------------------------------------
* Lineic mass is in lb-f/ft, converted from weight lineic mass
* given in NRC document in lb-f/in
CROS CD=101  OD=3.500 WT=.216 MA=10.776 KL=1 SO=0
CROS CD=102  OD=4.500 WT=.237 MA=16.296 KL=1 SO=0
CROS CD=103  OD=8.625 WT=.322 MA=50.244 KL=1 SO=0

* -------------------------------------------------------------------
* Design & Operating conditions
* -------------------------------------------------------------------
DESN      TE=300 PR=0.
OPER CA=1 TE=150 PR=0.
MATL CD=101

*--------------------------------------------------------------------
* Geometry
* -------------------------------------------------------------------

* -------------------------------------------------------------------
* Branch 1
CROS CD=101
COOR PT=1   AX=0     AY=0    AZ=0
ANCH PT=1   LV=1
     KX=1.E11   KY=1.E11    KZ=1.E11
     MX=1.E11   MY=1.E11    MZ=1.E11

TANG PT=2   DX=15                         SD=5

TANP DX=4.5
BRAD PT=3   RA=4.5     SD=25
TANP DY=-4.5

TANG PT=4             DY=-175.5           SD=58
RSTN PT=4   LV=1    DX=1.                           SP=1.E8
RSTN PT=4   LV=1                         DZ=1.      SP=1.E8

TANG PT=5             DY=-19.5            SD=6

TANP DY=-4.5
BRAD PT=6   RA=4.5    SD=25
TANP DZ=4.5

TANG PT=7   DZ=135    SD=45
RSTN PT=7   LV=1               DY=1.                SP=1.E8

TANP DZ=4.5
BRAD PT=8 RA=4.5      SD=25
TANP DX=4.5

TANG PT=9   DX=72     SD=24
TANG PT=10  DX=158    SD=52

TANG PT=11  DX=79     SD=26
RSTN PT=11  LV=1               DY=1.                SP=1.E8
RSTN PT=11  LV=1                         DZ=1.      SP=1.E5

TANG PT=12  DX=78                   SD=78
TANG PT=13  DX=72                   SD=72

TANP DX=4.5
BRAD PT=14  RA=4.5   SD=25
TANP DZ=4.5

TANG PT=15           DZ=43.5       SD=14
RSTN PT=15  LV=2     DX=1.                          SP=1.E5

TANG PT=16           DZ=43.5       SD=14

TANP DZ=4.5
BRAD PT=17  RA=4.5    SD=25
TANP DX=4.5

RSTN PT=17  LV=2               DY=1.                SP=1.E8
RSTN PT=17  LV=2                         DZ=1.      SP=1.E5

TANG PT=18  DX=83                   SD=27
TANG PT=19  DX=148                  SD=49

TANP DX=4.5
BRAD PT=20  RA=4.5    SD=25
TANP DY=-4.5

TANG PT=39          DY=-50.         SD=16
BRAN PT=21          DY=-5.5    TE=0

* -------------------------------------------------------------------
* Branch 2
CROS CD=102
TANG PT=22          DZ=-35              SD=11

TANG PT=23          DZ=-15              SD=5
RSTN PT=23  LV=2     DX=1.                          SP=1.E5
RSTN PT=23  LV=2               DY=1.                SP=1.E8


TANP DZ=-6
BRAD PT=24   RA=6     SD=25
TANP DX=6

TANG PT=25  DX=20                       SD=6
TANG PT=26  DX=92                       SD=30

TANP DX=6
BRAD PT=27   RA=6     SD=25
TANP DZ=-6

TANG PT=28          DZ=-18              SD=20
TANG PT=29          DZ=-18              SD=20

TANP DZ=-6
BRAD PT=30   RA=6    SD=25
TANP DY=-6

TANG PT=31          DY=-90              SD=60
ANCH PT=31  LV=1
     KX=1.E11   KY=1.E11    KZ=1.E11
     MX=1.E11   MY=1.E11    MZ=1.E11

* -------------------------------------------------------------------
* Branch 3
JUNC PT=21

* ----------------------------------------------------
* Added to avoid Caltuy error on diam change in "run"
TANG PT=32B         DZ=2
* ----------------------------------------------------

CROS CD=103
TANG PT=32          DZ=13    SD=8 * = 15" - 2"

TANG PT=33          DZ=15    SD=10
TANG PT=34          DZ=36    SD=24

TANG PT=35          DZ=108   SD=72

TANP DZ=12
BRAD PT=36          RA=12    SD=25
TANP DX=12

RSTN PT=36  LV=3               DY=1.                SP=1.E8
RSTN PT=36  LV=3                          DZ=1.     SP=1.E5

TANG PT=37  DX=108          SD=72

TANG PT=38  DX=108          SD=72
ANCH PT=38  LV=3
     KX=1.E11   KY=1.E11    KZ=1.E11
     MX=1.E11   MY=1.E11    MZ=1.E11

ENDP
"""
