# coding=utf-8
# --------------------------------------------------------------------
# Copyright (C) 1991 - 2025 - EDF R&D - www.code-aster.org
# This file is part of code_aster.
#
# code_aster is free software: you can redistribute it and/or modify
# it under the terms of the GNU General Public License as published by
# the Free Software Foundation, either version 3 of the License, or
# (at your option) any later version.
#
# code_aster is distributed in the hope that it will be useful,
# but WITHOUT ANY WARRANTY; without even the implied warranty of
# MERCHANTABILITY or FITNESS FOR A PARTICULAR PURPOSE.  See the
# GNU General Public License for more details.
#
# You should have received a copy of the GNU General Public License
# along with code_aster.  If not, see <http://www.gnu.org/licenses/>.
# --------------------------------------------------------------------

# person_in_charge: sylvie.audebert at edf.fr
# ----------------------------------------------------------------------
# POUTRE ENCASTREE-LIBRE SOUMIS A UN SEISME
# CORRECTION STATIQUE DE L'EFFET DES MODES PROPRES D'ORDRE ELEVE
#                                                  REF: SFM.VPCS SDLL23
# ----------------------------------------------------------------------


DEBUT(CODE="OUI", DEBUG=_F(SDVERI="OUI"))

MAILLAG0 = LIRE_MAILLAGE(FORMAT="ASTER")

MAILLAG0 = DEFI_GROUP(
    reuse=MAILLAG0, MAILLAGE=MAILLAG0, CREA_GROUP_MA=_F(NOM="MAILLAGE", UNION=("E01", "E02"))
)

MAILLAGE = CREA_MAILLAGE(
    MAILLAGE=MAILLAG0,
    CREA_POI1=(
        _F(NOM_GROUP_MA="MASSE", GROUP_NO="MASSE"),
        _F(NOM_GROUP_MA="B", GROUP_NO="B"),
        _F(NOM_GROUP_MA="C", GROUP_NO="C"),
    ),
)

MAT = DEFI_MATERIAU(ELAS=_F(E=2.0e11, NU=0.3, RHO=0.0))

CH_MATE = AFFE_MATERIAU(MAILLAGE=MAILLAGE, AFFE=_F(GROUP_MA="M_POUT", MATER=MAT))

MODELE = AFFE_MODELE(
    MAILLAGE=MAILLAGE,
    AFFE=(
        _F(GROUP_MA="M_POUT", PHENOMENE="MECANIQUE", MODELISATION="POU_D_E"),
        _F(GROUP_MA="MASSE", PHENOMENE="MECANIQUE", MODELISATION="DIS_T"),
    ),
)

CARA_ELE = AFFE_CARA_ELEM(
    MODELE=MODELE,
    POUTRE=_F(
        GROUP_MA="M_POUT",
        SECTION="GENERALE",
        CARA=("A", "IY", "IZ", "JX"),
        VALE=(78.1e-4, 5696.0e-8, 2003.0e-8, 7699.0e-8),
    ),
    DISCRET=(
        _F(GROUP_MA="B", CARA="M_T_D_N", VALE=50000.0),
        _F(GROUP_MA="B", CARA="K_T_D_N", VALE=(0.0, 0.0, 0.0)),
        _F(GROUP_MA="C", CARA="M_T_D_N", VALE=5000.0),
    ),
)

COND_LIM = AFFE_CHAR_MECA(
    MODELE=MODELE, DDL_IMPO=_F(GROUP_NO="A", DX=0.0, DY=0.0, DZ=0.0, DRX=0.0, DRY=0.0, DRZ=0.0)
)

RIGI_ELE = CALC_MATR_ELEM(
    MODELE=MODELE, OPTION="RIGI_MECA", CHAM_MATER=CH_MATE, CARA_ELEM=CARA_ELE, CHARGE=COND_LIM
)

MASS_ELE = CALC_MATR_ELEM(
    MODELE=MODELE, OPTION="MASS_MECA", CHAM_MATER=CH_MATE, CARA_ELEM=CARA_ELE, CHARGE=COND_LIM
)

NUME1 = NUME_DDL(MATR_RIGI=RIGI_ELE)

RIGIDITE = ASSE_MATRICE(MATR_ELEM=RIGI_ELE, NUME_DDL=NUME1)

MASSE = ASSE_MATRICE(MATR_ELEM=MASS_ELE, NUME_DDL=NUME1)

TABL_MAS = POST_ELEM(
    MODELE=MODELE,
    CHAM_MATER=CH_MATE,
    CARA_ELEM=CARA_ELE,
    MASS_INER=(_F(TOUT="OUI"), _F(GROUP_MA="MAILLAGE")),
)

IMPR_TABLE(TABLE=TABL_MAS)

MODE_MEC = CALC_MODES(
    OPTION="PLUS_PETITE",
    CHAM_MATER=CH_MATE,
    CARA_ELEM=CARA_ELE,
    MATR_RIGI=RIGIDITE,
    MATR_MASS=MASSE,
    CALC_FREQ=_F(NMAX_FREQ=6),
    SOLVEUR_MODAL=_F(DIM_SOUS_ESPACE=6),
    NORM_MODE=_F(NORME="MASS_GENE"),
)


MODE_MEC = CALC_CHAMP(
    reuse=MODE_MEC, RESULTAT=MODE_MEC, CONTRAINTE=("SIEF_ELGA", "EFGE_ELNO", "SIPO_ELNO")
)


MODE_MEC = CALC_CHAMP(reuse=MODE_MEC, RESULTAT=MODE_MEC, FORCE="REAC_NODA")

MODEMEC2 = CALC_MODES(
    OPTION="PLUS_PETITE",
    CHAM_MATER=CH_MATE,
    CARA_ELEM=CARA_ELE,
    MATR_RIGI=RIGIDITE,
    MATR_MASS=MASSE,
    CALC_FREQ=_F(NMAX_FREQ=6),
    SOLVEUR_MODAL=_F(DIM_SOUS_ESPACE=6),
)


MODEMEC2 = CALC_CHAMP(reuse=MODEMEC2, RESULTAT=MODEMEC2, CONTRAINTE=("SIEF_ELGA"))


MODEMEC2 = CALC_CHAMP(reuse=MODEMEC2, RESULTAT=MODEMEC2, FORCE="REAC_NODA", NUME_MODE=(1, 2))

MODEMEC2 = CALC_CHAMP(reuse=MODEMEC2, RESULTAT=MODEMEC2, FORCE="REAC_NODA", NUME_ORDRE=3)

MODEMEC2 = CALC_CHAMP(
    reuse=MODEMEC2,
    RESULTAT=MODEMEC2,
    FORCE="REAC_NODA",
    FREQ=12.4675,
    CRITERE="ABSOLU",
    PRECISION=1.0e-3,
)

LIS = DEFI_LIST_REEL(DEBUT=27.5075, INTERVALLE=_F(JUSQU_A=41.7401, NOMBRE=1))

MODEMEC2 = CALC_CHAMP(
    reuse=MODEMEC2, RESULTAT=MODEMEC2, FORCE="REAC_NODA", LIST_FREQ=LIS, PRECISION=1.0e-3
)

TEST_RESU(
    RESU=(
        _F(
            PARA="FREQ",
            NUME_MODE=1,
            RESULTAT=MODE_MEC,
            VALE_CALC=0.246729837,
            VALE_REFE=0.24690999999999999,
            REFERENCE="SOURCE_EXTERNE",
            CRITERE="RELATIF",
            PRECISION=1.0e-2,
        ),
        _F(
            PARA="FREQ",
            NUME_MODE=2,
            RESULTAT=MODE_MEC,
            VALE_CALC=0.416069793,
            VALE_REFE=0.41665999999999997,
            REFERENCE="SOURCE_EXTERNE",
            CRITERE="RELATIF",
            PRECISION=1.0e-2,
        ),
        _F(
            PARA="FREQ",
            NUME_MODE=3,
            RESULTAT=MODE_MEC,
            VALE_CALC=7.393219890,
            VALE_REFE=7.4074,
            REFERENCE="SOURCE_EXTERNE",
            CRITERE="RELATIF",
            PRECISION=1.0e-2,
        ),
        _F(
            PARA="FREQ",
            NUME_MODE=4,
            RESULTAT=MODE_MEC,
            VALE_CALC=12.467464460,
            VALE_REFE=12.5,
            REFERENCE="SOURCE_EXTERNE",
            CRITERE="RELATIF",
            PRECISION=1.0e-2,
        ),
        _F(
            PARA="FREQ",
            NUME_MODE=5,
            RESULTAT=MODE_MEC,
            VALE_CALC=27.507460450,
            VALE_REFE=27.777699999999999,
            REFERENCE="SOURCE_EXTERNE",
            CRITERE="RELATIF",
            PRECISION=1.0e-2,
        ),
        _F(
            PARA="FREQ",
            NUME_MODE=6,
            RESULTAT=MODE_MEC,
            VALE_CALC=41.740148177,
            VALE_REFE=41.666600000000003,
            REFERENCE="SOURCE_EXTERNE",
            CRITERE="RELATIF",
            PRECISION=1.0e-2,
        ),
    )
)

#

TEST_RESU(
    RESU=(
        _F(
            PARA="FACT_PARTICI_DY",
            NUME_MODE=1,
            RESULTAT=MODE_MEC,
            VALE_CALC=73.316046400,
            VALE_REFE=73.299999999999997,
            REFERENCE="SOURCE_EXTERNE",
            CRITERE="RELATIF",
            PRECISION=1.0e-2,
        ),
        _F(
            PARA="FACT_PARTICI_DZ",
            NUME_MODE=2,
            RESULTAT=MODE_MEC,
            VALE_CALC=73.316046400,
            VALE_REFE=73.299999999999997,
            REFERENCE="SOURCE_EXTERNE",
            CRITERE="RELATIF",
            PRECISION=1.0e-2,
        ),
        _F(
            PARA="FACT_PARTICI_DY",
            NUME_MODE=3,
            RESULTAT=MODE_MEC,
            VALE_CALC=222.766149449,
            VALE_REFE=223.0,
            REFERENCE="SOURCE_EXTERNE",
            CRITERE="RELATIF",
            PRECISION=1.0e-2,
        ),
        _F(
            PARA="FACT_PARTICI_DZ",
            NUME_MODE=4,
            RESULTAT=MODE_MEC,
            VALE_CALC=-222.766149449,
            VALE_REFE=-223.0,
            REFERENCE="SOURCE_EXTERNE",
            CRITERE="RELATIF",
            PRECISION=1.0e-2,
        ),
        _F(
            PARA="FACT_PARTICI_DX",
            NUME_MODE=5,
            RESULTAT=MODE_MEC,
            VALE_CALC=130.136742759,
            VALE_REFE=130.0,
            REFERENCE="SOURCE_EXTERNE",
            CRITERE="RELATIF",
            PRECISION=1.0e-2,
        ),
        _F(
            PARA="FACT_PARTICI_DX",
            NUME_MODE=6,
            RESULTAT=MODE_MEC,
            VALE_CALC=195.101071714,
            VALE_REFE=195.0,
            REFERENCE="SOURCE_EXTERNE",
            CRITERE="RELATIF",
            PRECISION=1.0e-2,
        ),
    )
)

MODE_STA = MODE_STATIQUE(
    MATR_RIGI=RIGIDITE,
    MATR_MASS=MASSE,
    CHAM_MATER=CH_MATE,
    CARA_ELEM=CARA_ELE,
    SOLVEUR=_F(METHODE="MULT_FRONT"),
    PSEUDO_MODE=(_F(AXE=("X", "Y")), _F(DIRECTION=(0.0, 0.0, 1.0), NOM_DIR="Z")),
)

MODE_STA = CALC_CHAMP(reuse=MODE_STA, RESULTAT=MODE_STA, CONTRAINTE=("SIEF_ELGA"))


MODE_STA = CALC_CHAMP(reuse=MODE_STA, RESULTAT=MODE_STA, FORCE="REAC_NODA", NOEUD_CMP=("ACCE", "X"))

MODE_STA = CALC_CHAMP(reuse=MODE_STA, RESULTAT=MODE_STA, FORCE="REAC_NODA", NOEUD_CMP=("ACCE", "Y"))

MODE_STA = CALC_CHAMP(reuse=MODE_STA, RESULTAT=MODE_STA, FORCE="REAC_NODA", NOEUD_CMP=("ACCE", "Z"))

ACCE_X = DEFI_FONCTION(
    NOM_PARA="FREQ", INTERPOL="LOG", VALE=(0.2, 2.4, 2.0, 25.0, 7.70, 25.0, 20.0, 10.0, 100.0, 10.0)
)

SPECT = DEFI_NAPPE(
    NOM_PARA="AMOR",
    INTERPOL=("LIN", "LOG"),
    PARA=(0.005, 0.01, 0.015),
    FONCTION=(ACCE_X, ACCE_X, ACCE_X),
)

# ----------------------------------------------------------------------
#                  COMBINAISON SRSS
# ----------------------------------------------------------------------

SISM_SP3 = COMB_SISM_MODAL(
    MODE_MECA=MODE_MEC,
    NUME_MODE=(1, 2, 3),
    AMOR_REDUIT=0.01,
    TYPE_ANALYSE="MONO_APPUI",
    SPECTRE=_F(LIST_AXE=("X", "Z", "Y"), SPEC_OSCI=SPECT, NATURE="ACCE", CORR_FREQ="NON"),
    COMB_MODE=_F(TYPE="DPC"),
    COMB_DIRECTION="QUAD",
    OPTION=("DEPL", "REAC_NODA", "EFGE_ELNO", "SIPO_ELNO"),
    TYPE_RESU=_F(TYPE="VALE_TOTA"),
)

SISMSP32 = COMB_SISM_MODAL(
    MODE_MECA=MODEMEC2,
    NUME_MODE=(1, 2, 3),
    AMOR_REDUIT=0.01,
    TYPE_ANALYSE="MONO_APPUI",
    SPECTRE=_F(LIST_AXE=("X", "Y", "Z"), SPEC_OSCI=SPECT, NATURE="ACCE", CORR_FREQ="NON"),
    COMB_MODE=_F(TYPE="DPC"),
    COMB_DIRECTION="QUAD",
    OPTION=("DEPL", "REAC_NODA"),
    TYPE_RESU=_F(TYPE="VALE_TOTA"),
)

TEST_RESU(
    RESU=(
        _F(
            RESULTAT=SISM_SP3,
            NOM_CHAM="DEPL",
            GROUP_NO="B",
            NOM_CMP="DY",
            VALE_CALC=0.012473834,
            VALE_REFE=0.012540000000000001,
            REFERENCE="SOURCE_EXTERNE",
            CRITERE="RELATIF",
            NOM_CAS="TOTA",
            PRECISION=0.02,
        ),
        _F(
            RESULTAT=SISM_SP3,
            NOM_CHAM="DEPL",
            GROUP_NO="C",
            NOM_CMP="DY",
            VALE_CALC=1.282038367,
            VALE_REFE=1.2689999999999999,
            REFERENCE="SOURCE_EXTERNE",
            CRITERE="RELATIF",
            NOM_CAS="TOTA",
            PRECISION=0.02,
        ),
        _F(
            RESULTAT=SISM_SP3,
            NOM_CHAM="DEPL",
            GROUP_NO="B",
            NOM_CMP="DZ",
            VALE_CALC=2.83266995e-03,
            VALE_REFE=2.8e-3,
            REFERENCE="SOURCE_EXTERNE",
            CRITERE="RELATIF",
            NOM_CAS="TOTA",
            PRECISION=0.02,
        ),
        _F(
            RESULTAT=SISM_SP3,
            NOM_CHAM="DEPL",
            GROUP_NO="C",
            NOM_CMP="DZ",
            VALE_CALC=0.767326026,
            VALE_REFE=0.75749999999999995,
            REFERENCE="SOURCE_EXTERNE",
            CRITERE="RELATIF",
            NOM_CAS="TOTA",
            PRECISION=0.02,
        ),
    )
)

#

TEST_RESU(
    RESU=(
        _F(
            RESULTAT=SISM_SP3,
            NOM_CHAM="REAC_NODA",
            GROUP_NO="A",
            NOM_CMP="DX",
            VALE_CALC=0.0,
            CRITERE="ABSOLU",
            NOM_CAS="TOTA",
        ),
        _F(
            RESULTAT=SISM_SP3,
            NOM_CHAM="REAC_NODA",
            GROUP_NO="A",
            NOM_CMP="DY",
            VALE_CALC=1.24072177e06,
            VALE_REFE=1.231000e6,
            REFERENCE="SOURCE_EXTERNE",
            CRITERE="RELATIF",
            NOM_CAS="TOTA",
            PRECISION=0.02,
        ),
        _F(
            RESULTAT=SISM_SP3,
            NOM_CHAM="REAC_NODA",
            GROUP_NO="A",
            NOM_CMP="DZ",
            VALE_CALC=2.71885264e04,
            VALE_REFE=2.7000e4,
            REFERENCE="SOURCE_EXTERNE",
            CRITERE="RELATIF",
            NOM_CAS="TOTA",
            PRECISION=0.02,
        ),
        _F(
            RESULTAT=SISM_SP3,
            NOM_CHAM="REAC_NODA",
            GROUP_NO="A",
            NOM_CMP="DRY",
            VALE_CALC=2.62689630e05,
            VALE_REFE=2.56000e5,
            REFERENCE="SOURCE_EXTERNE",
            CRITERE="RELATIF",
            NOM_CAS="TOTA",
            PRECISION=0.029999999999999999,
        ),
        _F(
            RESULTAT=SISM_SP3,
            NOM_CHAM="REAC_NODA",
            GROUP_NO="A",
            NOM_CMP="DRZ",
            VALE_CALC=5.96936678e05,
            VALE_REFE=5.91000e5,
            REFERENCE="SOURCE_EXTERNE",
            CRITERE="RELATIF",
            NOM_CAS="TOTA",
            PRECISION=0.02,
        ),
    )
)

#
TEST_RESU(
    RESU=(
        _F(
            RESULTAT=SISM_SP3,
            NOM_CHAM="SIPO_ELNO",
            GROUP_NO="A",
            NOM_CMP="SMFY",
            VALE_CALC=4.61182637e09,
            VALE_REFE=4.611000000e9,
            REFERENCE="SOURCE_EXTERNE",
            CRITERE="RELATIF",
            NOM_CAS="TOTA",
            PRECISION=0.02,
            GROUP_MA="E01",
        ),
        _F(
            RESULTAT=SISM_SP3,
            NOM_CHAM="SIPO_ELNO",
            GROUP_NO="A",
            NOM_CMP="SMFZ",
            VALE_CALC=2.98021307e10,
            VALE_REFE=2.9800000000e10,
            REFERENCE="SOURCE_EXTERNE",
            CRITERE="RELATIF",
            NOM_CAS="TOTA",
            PRECISION=0.02,
            GROUP_MA="E01",
        ),
        _F(
            RESULTAT=SISM_SP3,
            NOM_CHAM="SIPO_ELNO",
            GROUP_NO="A",
            NOM_CMP="SVY",
            VALE_CALC=1.58863223e08,
            VALE_REFE=1.58800000e8,
            REFERENCE="SOURCE_EXTERNE",
            CRITERE="RELATIF",
            NOM_CAS="TOTA",
            PRECISION=0.02,
            GROUP_MA="E01",
        ),
        _F(
            RESULTAT=SISM_SP3,
            NOM_CHAM="SIPO_ELNO",
            GROUP_NO="A",
            NOM_CMP="SVZ",
            VALE_CALC=3.48124538e06,
            VALE_REFE=3.481000e6,
            REFERENCE="SOURCE_EXTERNE",
            CRITERE="RELATIF",
            NOM_CAS="TOTA",
            PRECISION=0.029999999999999999,
            GROUP_MA="E01",
        ),
    )
)

#
TEST_RESU(
    RESU=(
        _F(
            RESULTAT=SISMSP32,
            NOM_CHAM="REAC_NODA",
            GROUP_NO="A",
            NOM_CMP="DX",
            VALE_CALC=0.0,
            CRITERE="ABSOLU",
            NOM_CAS="TOTA",
        ),
        _F(
            RESULTAT=SISMSP32,
            NOM_CHAM="REAC_NODA",
            GROUP_NO="A",
            NOM_CMP="DY",
            VALE_CALC=1.24072177e06,
            VALE_REFE=1.231000e6,
            REFERENCE="SOURCE_EXTERNE",
            CRITERE="RELATIF",
            NOM_CAS="TOTA",
            PRECISION=0.02,
        ),
        _F(
            RESULTAT=SISMSP32,
            NOM_CHAM="REAC_NODA",
            GROUP_NO="A",
            NOM_CMP="DZ",
            VALE_CALC=2.71885264e04,
            VALE_REFE=2.7000e4,
            REFERENCE="SOURCE_EXTERNE",
            CRITERE="RELATIF",
            NOM_CAS="TOTA",
            PRECISION=0.02,
        ),
        _F(
            RESULTAT=SISMSP32,
            NOM_CHAM="REAC_NODA",
            GROUP_NO="A",
            NOM_CMP="DRY",
            VALE_CALC=2.62689630e05,
            VALE_REFE=2.56000e5,
            REFERENCE="SOURCE_EXTERNE",
            CRITERE="RELATIF",
            NOM_CAS="TOTA",
            PRECISION=0.029999999999999999,
        ),
        _F(
            RESULTAT=SISMSP32,
            NOM_CHAM="REAC_NODA",
            GROUP_NO="A",
            NOM_CMP="DRZ",
            VALE_CALC=5.96936678e05,
            VALE_REFE=5.91000e5,
            REFERENCE="SOURCE_EXTERNE",
            CRITERE="RELATIF",
            NOM_CAS="TOTA",
            PRECISION=0.02,
        ),
    )
)

#

SISM_SP6 = COMB_SISM_MODAL(
    MODE_MECA=MODE_MEC,
    AMOR_REDUIT=0.01,
    TYPE_ANALYSE="MONO_APPUI",
    SPECTRE=_F(LIST_AXE=("X", "Y", "Z"), SPEC_OSCI=SPECT, NATURE="ACCE", CORR_FREQ="NON"),
    COMB_MODE=_F(TYPE="DPC"),
    COMB_DIRECTION="QUAD",
    OPTION=("DEPL", "REAC_NODA", "VITE", "ACCE_ABSOLU"),
    TYPE_RESU=_F(TYPE="VALE_TOTA"),
    INFO=2,
)

TEST_RESU(
    RESU=(
        _F(
            RESULTAT=SISM_SP6,
            NOM_CHAM="DEPL",
            GROUP_NO="B",
            NOM_CMP="DX",
            VALE_CALC=1.33360770e-04,
            VALE_REFE=1.3200000000000001e-4,
            REFERENCE="SOURCE_EXTERNE",
            CRITERE="RELATIF",
            NOM_CAS="TOTA",
            PRECISION=0.02,
        ),
        _F(
            RESULTAT=SISM_SP6,
            NOM_CHAM="DEPL",
            GROUP_NO="C",
            NOM_CMP="DX",
            VALE_CALC=6.02208369e-04,
            VALE_REFE=5.9999999999999995e-4,
            REFERENCE="SOURCE_EXTERNE",
            CRITERE="RELATIF",
            NOM_CAS="TOTA",
            PRECISION=0.02,
        ),
        _F(
            RESULTAT=SISM_SP6,
            NOM_CHAM="DEPL",
            GROUP_NO="B",
            NOM_CMP="DY",
            VALE_CALC=0.012473834,
            VALE_REFE=0.01255,
            REFERENCE="SOURCE_EXTERNE",
            CRITERE="RELATIF",
            NOM_CAS="TOTA",
            PRECISION=0.02,
        ),
        _F(
            RESULTAT=SISM_SP6,
            NOM_CHAM="DEPL",
            GROUP_NO="C",
            NOM_CMP="DY",
            VALE_CALC=1.282038367,
            VALE_REFE=1.2689999999999999,
            REFERENCE="SOURCE_EXTERNE",
            CRITERE="RELATIF",
            NOM_CAS="TOTA",
            PRECISION=0.02,
        ),
        _F(
            RESULTAT=SISM_SP6,
            NOM_CHAM="DEPL",
            GROUP_NO="B",
            NOM_CMP="DZ",
            VALE_CALC=3.81495339e-03,
            VALE_REFE=3.8300000000000001e-3,
            REFERENCE="SOURCE_EXTERNE",
            CRITERE="RELATIF",
            NOM_CAS="TOTA",
            PRECISION=0.02,
        ),
        _F(
            RESULTAT=SISM_SP6,
            NOM_CHAM="DEPL",
            GROUP_NO="C",
            NOM_CMP="DZ",
            VALE_CALC=0.767326032,
            VALE_REFE=0.75800000000000001,
            REFERENCE="SOURCE_EXTERNE",
            CRITERE="RELATIF",
            NOM_CAS="TOTA",
            PRECISION=0.02,
        ),
    )
)

#

TEST_RESU(
    RESU=(
        _F(
            RESULTAT=SISM_SP6,
            NOM_CHAM="REAC_NODA",
            GROUP_NO="A",
            NOM_CMP="DX",
            VALE_CALC=4.16619045e05,
            VALE_REFE=4.12000e5,
            REFERENCE="SOURCE_EXTERNE",
            CRITERE="RELATIF",
            NOM_CAS="TOTA",
            PRECISION=0.02,
        ),
        _F(
            RESULTAT=SISM_SP6,
            NOM_CHAM="REAC_NODA",
            GROUP_NO="A",
            NOM_CMP="DY",
            VALE_CALC=1.24072177e06,
            VALE_REFE=1.227000e6,
            REFERENCE="SOURCE_EXTERNE",
            CRITERE="RELATIF",
            NOM_CAS="TOTA",
            PRECISION=0.02,
        ),
        _F(
            RESULTAT=SISM_SP6,
            NOM_CHAM="REAC_NODA",
            GROUP_NO="A",
            NOM_CMP="DZ",
            VALE_CALC=7.81617591e05,
            VALE_REFE=7.96000e5,
            REFERENCE="SOURCE_EXTERNE",
            CRITERE="RELATIF",
            NOM_CAS="TOTA",
            PRECISION=0.02,
        ),
        _F(
            RESULTAT=SISM_SP6,
            NOM_CHAM="REAC_NODA",
            GROUP_NO="A",
            NOM_CMP="DRY",
            VALE_CALC=4.48140462e05,
            VALE_REFE=4.49000e5,
            REFERENCE="SOURCE_EXTERNE",
            CRITERE="RELATIF",
            NOM_CAS="TOTA",
            PRECISION=0.02,
        ),
        _F(
            RESULTAT=SISM_SP6,
            NOM_CHAM="REAC_NODA",
            GROUP_NO="A",
            NOM_CMP="DRZ",
            VALE_CALC=5.96936678e05,
            VALE_REFE=5.90000e5,
            REFERENCE="SOURCE_EXTERNE",
            CRITERE="RELATIF",
            NOM_CAS="TOTA",
            PRECISION=0.02,
        ),
    )
)

SISM_3ST = COMB_SISM_MODAL(
    MODE_MECA=MODE_MEC,
    NUME_MODE=(1, 2, 3),
    PSEUDO_MODE=MODE_STA,
    MODE_CORR="OUI",
    AMOR_REDUIT=0.01,
    TYPE_ANALYSE="MONO_APPUI",
    SPECTRE=_F(LIST_AXE=("X", "Y", "Z"), SPEC_OSCI=SPECT, CORR_FREQ="NON"),
    COMB_MODE=_F(TYPE="SRSS"),
    COMB_DIRECTION="QUAD",
    OPTION=("DEPL", "REAC_NODA"),
    TYPE_RESU=_F(TYPE="VALE_TOTA"),
)

TEST_RESU(
    RESU=(
        _F(
            REFERENCE="SOURCE_EXTERNE",
            RESULTAT=SISM_3ST,
            NOM_CHAM="DEPL",
            GROUP_NO="B",
            NOM_CMP="DX",
            VALE_CALC=4.40140845e-04,
            VALE_REFE=1.76e-4,
            CRITERE="RELATIF",
            NOM_CAS="TOTA",
            PRECISION=1.6000000000000001,
        ),
        _F(
            REFERENCE="SOURCE_EXTERNE",
            RESULTAT=SISM_3ST,
            NOM_CHAM="DEPL",
            GROUP_NO="C",
            NOM_CMP="DX",
            VALE_CALC=1.20038412e-03,
            VALE_REFE=4.8000000000000001e-4,
            CRITERE="RELATIF",
            NOM_CAS="TOTA",
            PRECISION=1.6000000000000001,
        ),
        _F(
            REFERENCE="SOURCE_EXTERNE",
            RESULTAT=SISM_3ST,
            NOM_CHAM="DEPL",
            GROUP_NO="B",
            NOM_CMP="DY",
            VALE_CALC=0.012473834,
            VALE_REFE=0.012670000000000001,
            CRITERE="RELATIF",
            NOM_CAS="TOTA",
            PRECISION=0.02,
        ),
        _F(
            REFERENCE="SOURCE_EXTERNE",
            RESULTAT=SISM_3ST,
            NOM_CHAM="DEPL",
            GROUP_NO="C",
            NOM_CMP="DY",
            VALE_CALC=1.282038367,
            VALE_REFE=1.2769999999999999,
            CRITERE="RELATIF",
            NOM_CAS="TOTA",
            PRECISION=0.02,
        ),
        _F(
            REFERENCE="SOURCE_EXTERNE",
            RESULTAT=SISM_3ST,
            NOM_CHAM="DEPL",
            GROUP_NO="B",
            NOM_CMP="DZ",
            VALE_CALC=4.94923368e-03,
            VALE_REFE=3.3e-3,
            CRITERE="RELATIF",
            NOM_CAS="TOTA",
            PRECISION=0.5,
        ),
        _F(
            REFERENCE="SOURCE_EXTERNE",
            RESULTAT=SISM_3ST,
            NOM_CHAM="DEPL",
            GROUP_NO="C",
            NOM_CMP="DZ",
            VALE_CALC=0.767326041,
            VALE_REFE=0.76200000000000001,
            CRITERE="RELATIF",
            NOM_CAS="TOTA",
            PRECISION=0.02,
        ),
    )
)

#
TEST_RESU(
    RESU=(
        _F(
            RESULTAT=SISM_3ST,
            NOM_CHAM="DEPL",
            GROUP_NO="B",
            NOM_CMP="DX",
            VALE_CALC=4.4014084507042e-4,
            NOM_CAS="TOTA",
        ),
        _F(
            RESULTAT=SISM_3ST,
            NOM_CHAM="DEPL",
            GROUP_NO="C",
            NOM_CMP="DX",
            VALE_CALC=1.2003841229193e-3,
            NOM_CAS="TOTA",
        ),
        _F(
            RESULTAT=SISM_3ST,
            NOM_CHAM="DEPL",
            GROUP_NO="B",
            NOM_CMP="DY",
            VALE_CALC=0.012473833912904001,
            NOM_CAS="TOTA",
        ),
        _F(
            RESULTAT=SISM_3ST,
            NOM_CHAM="DEPL",
            GROUP_NO="C",
            NOM_CMP="DY",
            VALE_CALC=1.2820383667859001,
            NOM_CAS="TOTA",
        ),
        _F(
            RESULTAT=SISM_3ST,
            NOM_CHAM="DEPL",
            GROUP_NO="B",
            NOM_CMP="DZ",
            VALE_CALC=4.9492336845147001e-3,
            NOM_CAS="TOTA",
        ),
        _F(
            RESULTAT=SISM_3ST,
            NOM_CHAM="DEPL",
            GROUP_NO="C",
            NOM_CMP="DZ",
            VALE_CALC=0.76732604110226998,
            NOM_CAS="TOTA",
        ),
    )
)

#

TEST_RESU(
    RESU=(
        _F(
            REFERENCE="SOURCE_EXTERNE",
            RESULTAT=SISM_3ST,
            NOM_CHAM="REAC_NODA",
            GROUP_NO="A",
            NOM_CMP="DX",
            VALE_CALC=1.37500000e06,
            VALE_REFE=5.46000e5,
            CRITERE="RELATIF",
            NOM_CAS="TOTA",
            PRECISION=1.6000000000000001,
        ),
        _F(
            REFERENCE="SOURCE_EXTERNE",
            RESULTAT=SISM_3ST,
            NOM_CHAM="REAC_NODA",
            GROUP_NO="A",
            NOM_CMP="DY",
            VALE_CALC=1.24072177e06,
            VALE_REFE=1.230000e6,
            CRITERE="RELATIF",
            NOM_CAS="TOTA",
            PRECISION=0.02,
        ),
        _F(
            REFERENCE="SOURCE_EXTERNE",
            RESULTAT=SISM_3ST,
            NOM_CHAM="REAC_NODA",
            GROUP_NO="A",
            NOM_CMP="DZ",
            VALE_CALC=1.24091682e06,
            VALE_REFE=4.90000e5,
            CRITERE="RELATIF",
            NOM_CAS="TOTA",
            PRECISION=1.6000000000000001,
        ),
        _F(
            REFERENCE="SOURCE_EXTERNE",
            RESULTAT=SISM_3ST,
            NOM_CHAM="REAC_NODA",
            GROUP_NO="A",
            NOM_CMP="DRY",
            VALE_CALC=6.33655104e05,
            VALE_REFE=3.43000e5,
            CRITERE="RELATIF",
            NOM_CAS="TOTA",
            PRECISION=0.84999999999999998,
        ),
        _F(
            REFERENCE="SOURCE_EXTERNE",
            RESULTAT=SISM_3ST,
            NOM_CHAM="REAC_NODA",
            GROUP_NO="A",
            NOM_CMP="DRZ",
            VALE_CALC=5.96936678e05,
            VALE_REFE=5.91000e5,
            CRITERE="RELATIF",
            NOM_CAS="TOTA",
            PRECISION=0.02,
        ),
    )
)

#
TEST_RESU(
    RESU=(
        _F(
            RESULTAT=SISM_3ST,
            NOM_CHAM="REAC_NODA",
            GROUP_NO="A",
            NOM_CMP="DX",
            VALE_CALC=1.375000e6,
            NOM_CAS="TOTA",
        ),
        _F(
            RESULTAT=SISM_3ST,
            NOM_CHAM="REAC_NODA",
            GROUP_NO="A",
            NOM_CMP="DY",
            VALE_CALC=1.2407217704157999e6,
            NOM_CAS="TOTA",
        ),
        _F(
            RESULTAT=SISM_3ST,
            NOM_CHAM="REAC_NODA",
            GROUP_NO="A",
            NOM_CMP="DZ",
            VALE_CALC=1.2409168199940999e6,
            NOM_CAS="TOTA",
        ),
        _F(
            RESULTAT=SISM_3ST,
            NOM_CHAM="REAC_NODA",
            GROUP_NO="A",
            NOM_CMP="DRY",
            VALE_CALC=6.3365510433958995e5,
            NOM_CAS="TOTA",
        ),
        _F(
            RESULTAT=SISM_3ST,
            NOM_CHAM="REAC_NODA",
            GROUP_NO="A",
            NOM_CMP="DRZ",
            VALE_CALC=5.9693667838728998e5,
            NOM_CAS="TOTA",
        ),
    )
)

# ----------------------------------------------------------------------
#                  COMBINAISON CQC
# ----------------------------------------------------------------------

SISM_CQC = COMB_SISM_MODAL(
    MODE_MECA=MODE_MEC,
    AMOR_REDUIT=0.01,
    TYPE_ANALYSE="MONO_APPUI",
    SPECTRE=_F(LIST_AXE=("X", "Y", "Z"), SPEC_OSCI=SPECT, NATURE="ACCE", CORR_FREQ="NON"),
    COMB_MODE=_F(TYPE="CQC"),
    COMB_DIRECTION="QUAD",
    OPTION=("DEPL", "REAC_NODA"),
    TYPE_RESU=_F(TYPE="VALE_TOTA"),
)

TEST_RESU(
    RESU=(
        _F(
            RESULTAT=SISM_CQC,
            NOM_CHAM="DEPL",
            GROUP_NO="B",
            NOM_CMP="DX",
            VALE_CALC=1.33470374e-04,
            VALE_REFE=1.3379599999999999e-4,
            REFERENCE="SOURCE_EXTERNE",
            CRITERE="RELATIF",
            NOM_CAS="TOTA",
            PRECISION=0.02,
        ),
        _F(
            RESULTAT=SISM_CQC,
            NOM_CHAM="DEPL",
            GROUP_NO="C",
            NOM_CMP="DX",
            VALE_CALC=6.01965499e-04,
            VALE_REFE=6.01243e-4,
            REFERENCE="SOURCE_EXTERNE",
            CRITERE="RELATIF",
            NOM_CAS="TOTA",
            PRECISION=0.02,
        ),
        _F(
            RESULTAT=SISM_CQC,
            NOM_CHAM="DEPL",
            GROUP_NO="B",
            NOM_CMP="DY",
            VALE_CALC=0.012473856,
            VALE_REFE=0.0124739,
            REFERENCE="SOURCE_EXTERNE",
            CRITERE="RELATIF",
            NOM_CAS="TOTA",
            PRECISION=0.02,
        ),
        _F(
            RESULTAT=SISM_CQC,
            NOM_CHAM="DEPL",
            GROUP_NO="C",
            NOM_CMP="DY",
            VALE_CALC=1.282038365,
            VALE_REFE=1.2820400000000001,
            REFERENCE="SOURCE_EXTERNE",
            CRITERE="RELATIF",
            NOM_CAS="TOTA",
            PRECISION=0.02,
        ),
        _F(
            RESULTAT=SISM_CQC,
            NOM_CHAM="DEPL",
            GROUP_NO="B",
            NOM_CMP="DZ",
            VALE_CALC=3.81496298e-03,
            VALE_REFE=3.8149899999999999e-3,
            REFERENCE="SOURCE_EXTERNE",
            CRITERE="RELATIF",
            NOM_CAS="TOTA",
            PRECISION=0.02,
        ),
        _F(
            RESULTAT=SISM_CQC,
            NOM_CHAM="DEPL",
            GROUP_NO="C",
            NOM_CMP="DZ",
            VALE_CALC=0.767326032,
            VALE_REFE=0.76732599999999995,
            REFERENCE="SOURCE_EXTERNE",
            CRITERE="RELATIF",
            NOM_CAS="TOTA",
            PRECISION=0.02,
        ),
    )
)

#

TEST_RESU(
    RESU=(
        _F(
            RESULTAT=SISM_CQC,
            NOM_CHAM="REAC_NODA",
            GROUP_NO="A",
            NOM_CMP="DX",
            VALE_CALC=4.16961447e05,
            VALE_REFE=4.17978e5,
            REFERENCE="SOURCE_EXTERNE",
            CRITERE="RELATIF",
            NOM_CAS="TOTA",
            PRECISION=0.02,
        ),
        _F(
            RESULTAT=SISM_CQC,
            NOM_CHAM="REAC_NODA",
            GROUP_NO="A",
            NOM_CMP="DY",
            VALE_CALC=1.24072185e06,
            VALE_REFE=1.240720e6,
            REFERENCE="SOURCE_EXTERNE",
            CRITERE="RELATIF",
            NOM_CAS="TOTA",
            PRECISION=0.02,
        ),
        _F(
            RESULTAT=SISM_CQC,
            NOM_CHAM="REAC_NODA",
            GROUP_NO="A",
            NOM_CMP="DZ",
            VALE_CALC=7.81617728e05,
            VALE_REFE=7.81618e5,
            REFERENCE="SOURCE_EXTERNE",
            CRITERE="RELATIF",
            NOM_CAS="TOTA",
            PRECISION=0.02,
        ),
        _F(
            RESULTAT=SISM_CQC,
            NOM_CHAM="REAC_NODA",
            GROUP_NO="A",
            NOM_CMP="DRY",
            VALE_CALC=4.48141537e05,
            VALE_REFE=4.48145e5,
            REFERENCE="SOURCE_EXTERNE",
            CRITERE="RELATIF",
            NOM_CAS="TOTA",
            PRECISION=0.02,
        ),
        _F(
            RESULTAT=SISM_CQC,
            NOM_CHAM="REAC_NODA",
            GROUP_NO="A",
            NOM_CMP="DRZ",
            VALE_CALC=5.96937431e05,
            VALE_REFE=5.96940e5,
            REFERENCE="SOURCE_EXTERNE",
            CRITERE="RELATIF",
            NOM_CAS="TOTA",
            PRECISION=0.02,
        ),
    )
)

# ----------------------------------------------------------------------
#                  COMBINAISON DSC
# ----------------------------------------------------------------------

SISM_DPC = COMB_SISM_MODAL(
    MODE_MECA=MODE_MEC,
    AMOR_REDUIT=0.01,
    TYPE_ANALYSE="MONO_APPUI",
    SPECTRE=_F(LIST_AXE=("X", "Y", "Z"), SPEC_OSCI=SPECT),
    COMB_MODE=_F(TYPE="DSC", DUREE=5.0),
    COMB_DIRECTION="QUAD",
    OPTION=("DEPL", "REAC_NODA"),
    TYPE_RESU=_F(TYPE="VALE_TOTA"),
)

TEST_RESU(
    RESU=(
        _F(
            RESULTAT=SISM_DPC,
            NOM_CHAM="DEPL",
            GROUP_NO="B",
            NOM_CMP="DX",
            VALE_CALC=1.33524470e-04,
            VALE_REFE=1.3391299999999999e-4,
            REFERENCE="SOURCE_EXTERNE",
            CRITERE="RELATIF",
            NOM_CAS="TOTA",
            PRECISION=0.02,
        ),
        _F(
            RESULTAT=SISM_DPC,
            NOM_CHAM="DEPL",
            GROUP_NO="C",
            NOM_CMP="DX",
            VALE_CALC=6.01845519e-04,
            VALE_REFE=6.0098200000000001e-4,
            REFERENCE="SOURCE_EXTERNE",
            CRITERE="RELATIF",
            NOM_CAS="TOTA",
            PRECISION=0.02,
        ),
        _F(
            RESULTAT=SISM_DPC,
            NOM_CHAM="DEPL",
            GROUP_NO="B",
            NOM_CMP="DY",
            VALE_CALC=0.012477381,
            VALE_REFE=0.0124805,
            REFERENCE="SOURCE_EXTERNE",
            CRITERE="RELATIF",
            NOM_CAS="TOTA",
            PRECISION=0.02,
        ),
        _F(
            RESULTAT=SISM_DPC,
            NOM_CHAM="DEPL",
            GROUP_NO="C",
            NOM_CMP="DY",
            VALE_CALC=1.282038022,
            VALE_REFE=1.2820400000000001,
            REFERENCE="SOURCE_EXTERNE",
            CRITERE="RELATIF",
            NOM_CAS="TOTA",
            PRECISION=0.02,
        ),
        _F(
            RESULTAT=SISM_DPC,
            NOM_CHAM="DEPL",
            GROUP_NO="B",
            NOM_CMP="DZ",
            VALE_CALC=3.81580957e-03,
            VALE_REFE=3.8168899999999999e-3,
            REFERENCE="SOURCE_EXTERNE",
            CRITERE="RELATIF",
            NOM_CAS="TOTA",
            PRECISION=0.02,
        ),
        _F(
            RESULTAT=SISM_DPC,
            NOM_CHAM="DEPL",
            GROUP_NO="C",
            NOM_CMP="DZ",
            VALE_CALC=0.767325990,
            VALE_REFE=0.76732599999999995,
            REFERENCE="SOURCE_EXTERNE",
            CRITERE="RELATIF",
            NOM_CAS="TOTA",
            PRECISION=0.02,
        ),
    )
)

#

TEST_RESU(
    RESU=(
        _F(
            RESULTAT=SISM_DPC,
            NOM_CHAM="REAC_NODA",
            GROUP_NO="A",
            NOM_CMP="DX",
            VALE_CALC=4.17130443e05,
            VALE_REFE=4.18344e5,
            REFERENCE="SOURCE_EXTERNE",
            CRITERE="RELATIF",
            NOM_CAS="TOTA",
            PRECISION=0.02,
        ),
        _F(
            RESULTAT=SISM_DPC,
            NOM_CHAM="REAC_NODA",
            GROUP_NO="A",
            NOM_CMP="DY",
            VALE_CALC=1.24073471e06,
            VALE_REFE=1.240750e6,
            REFERENCE="SOURCE_EXTERNE",
            CRITERE="RELATIF",
            NOM_CAS="TOTA",
            PRECISION=0.02,
        ),
        _F(
            RESULTAT=SISM_DPC,
            NOM_CHAM="REAC_NODA",
            GROUP_NO="A",
            NOM_CMP="DZ",
            VALE_CALC=7.81629853e05,
            VALE_REFE=7.81645e5,
            REFERENCE="SOURCE_EXTERNE",
            CRITERE="RELATIF",
            NOM_CAS="TOTA",
            PRECISION=0.02,
        ),
        _F(
            RESULTAT=SISM_DPC,
            NOM_CHAM="REAC_NODA",
            GROUP_NO="A",
            NOM_CMP="DRY",
            VALE_CALC=4.48236498e05,
            VALE_REFE=4.48357e5,
            REFERENCE="SOURCE_EXTERNE",
            CRITERE="RELATIF",
            NOM_CAS="TOTA",
            PRECISION=0.02,
        ),
        _F(
            RESULTAT=SISM_DPC,
            NOM_CHAM="REAC_NODA",
            GROUP_NO="A",
            NOM_CMP="DRZ",
            VALE_CALC=5.97057463e05,
            VALE_REFE=5.97165e5,
            REFERENCE="SOURCE_EXTERNE",
            CRITERE="RELATIF",
            NOM_CAS="TOTA",
            PRECISION=0.02,
        ),
    )
)

FIN()
#
