# coding=utf-8
# --------------------------------------------------------------------
# Copyright (C) 1991 - 2025 - EDF R&D - www.code-aster.org
# This file is part of code_aster.
#
# code_aster is free software: you can redistribute it and/or modify
# it under the terms of the GNU General Public License as published by
# the Free Software Foundation, either version 3 of the License, or
# (at your option) any later version.
#
# code_aster is distributed in the hope that it will be useful,
# but WITHOUT ANY WARRANTY; without even the implied warranty of
# MERCHANTABILITY or FITNESS FOR A PARTICULAR PURPOSE.  See the
# GNU General Public License for more details.
#
# You should have received a copy of the GNU General Public License
# along with code_aster.  If not, see <http://www.gnu.org/licenses/>.
# --------------------------------------------------------------------

#
# ******************************************************************
# **************   NOUVELLE REALISATION                   **********
# ************** PARTIE COMMUNE A TOUTES LES MODELISATIONS **********

DEBUT(CODE="OUI", DEBUG=_F(SDVERI="OUI"))

MAILLAGE = LIRE_MAILLAGE(FORMAT="ASTER")

MAILLAGE = DEFI_GROUP(
    reuse=MAILLAGE,
    MAILLAGE=MAILLAGE,
    CREA_GROUP_MA=_F(NOM="GXXXXXX_TOUT", TOUT="OUI"),
    CREA_GROUP_NO=_F(NOM="NOREF", GROUP_NO=("N1")),
)

MODELE = AFFE_MODELE(
    MAILLAGE=MAILLAGE,
    AFFE=_F(GROUP_MA="GXXXXXX_POU_D_T", PHENOMENE="MECANIQUE", MODELISATION="POU_D_E"),
)

MAT = DEFI_MATERIAU(ELAS=_F(E=1.658e11, RHO=1.3404106e04, NU=0.3))

CHAMPMAT = AFFE_MATERIAU(MAILLAGE=MAILLAGE, AFFE=_F(TOUT="OUI", MATER=MAT))

CARA_ELE = AFFE_CARA_ELEM(
    MODELE=MODELE,
    POUTRE=_F(
        GROUP_MA="GXXXXXX_TOUT",
        SECTION="GENERALE",
        CARA=("A", "IZ", "IY", "JX"),
        VALE=(3.4390e-03, 1.3770e-05, 1.3770e-05, 2.7540e-05),
    ),
)

COND_LIM = AFFE_CHAR_MECA(
    MODELE=MODELE,
    DDL_IMPO=(
        _F(GROUP_NO="GXXXXXX_ENCASTRE", DX=0.0, DY=0.0, DZ=0.0, DRX=0.0, DRY=0.0, DRZ=0.0),
        _F(GROUP_NO="GXXXXXX_ATTACHE", DX=0.0, DY=0.0),
    ),
)

# --------------------------------------------------------------------

ASSEMBLAGE(
    MODELE=MODELE,
    CARA_ELEM=CARA_ELE,
    CHAM_MATER=CHAMPMAT,
    CHARGE=COND_LIM,
    NUME_DDL=CO("NUME"),
    MATR_ASSE=(
        _F(MATRICE=CO("RIGIDITE"), OPTION="RIGI_MECA"),
        _F(MATRICE=CO("MASSE"), OPTION="MASS_MECA"),
    ),
)

# CALCUL DE LA MASSE DE LA  STRUCTURE:
# -------------------------------------

MAS = POST_ELEM(MODELE=MODELE, CHAM_MATER=CHAMPMAT, CARA_ELEM=CARA_ELE, MASS_INER=_F(TOUT="OUI"))

# CALCUL DES MODES AVEC BLOQUAGE DES ANCRAGES
#         ET AJOUT DES REACTIONS D'APPUI MODALE
# ---------------------------------------------

MODE = CALC_MODES(
    MATR_RIGI=RIGIDITE,
    CARA_ELEM=CARA_ELE,
    CHAM_MATER=CHAMPMAT,
    CALC_FREQ=_F(NMAX_FREQ=10),
    MATR_MASS=MASSE,
    SOLVEUR_MODAL=_F(METHODE="TRI_DIAG"),
)

MODE = NORM_MODE(reuse=MODE, MODE=MODE, NORME="TRAN_ROTA")

MODE = CALC_CHAMP(reuse=MODE, RESULTAT=MODE, CONTRAINTE=("SIEF_ELGA"))

MODE = CALC_CHAMP(reuse=MODE, RESULTAT=MODE, FORCE=("FORC_NODA", "REAC_NODA"))

#
# DEFINITION DU SPECTRE:
# -----------------------

ACCE_XY = DEFI_FONCTION(
    NOM_PARA="FREQ",
    INTERPOL="LOG",
    VALE=(1.0, 1.962, 10.0, 19.62, 30.0, 19.62, 100.0, 1.962, 10000.0, 1.962),
)

ACCE_Z = DEFI_FONCTION(
    NOM_PARA="FREQ",
    INTERPOL="LOG",
    VALE=(1.0, 0.981, 10.0, 9.81, 30.0, 9.81, 100.0, 0.981, 10000.0, 0.981),
)

SPECT_XY = DEFI_NAPPE(
    NOM_PARA="AMOR", INTERPOL=("LIN", "LOG"), PARA=(0.02, 0.05), FONCTION=(ACCE_XY, ACCE_XY)
)

SPECT_Z = DEFI_NAPPE(NOM_PARA="AMOR", INTERPOL="LOG", PARA=(0.02, 0.05), FONCTION=(ACCE_Z, ACCE_Z))

#
# =======================================================================
# 1/ ON ETUDIE LA STRUCTURE EN MONO-APPUI
#                           SANS CORRECTION STATIQUE
#                           SPECTRE HORIZONTAL
#                           COMBINAISON QUADRATIQUE COMPLETE
# -----------------------------------------

SISM_MO1 = COMB_SISM_MODAL(
    MODE_MECA=MODE,
    AMOR_REDUIT=0.03,
    TYPE_ANALYSE="MONO_APPUI",
    SPECTRE=(_F(LIST_AXE=("X"), SPEC_OSCI=SPECT_XY, CORR_FREQ="NON", ECHELLE=1.0),),
    COMB_MODE=_F(TYPE="CQC"),
    OPTION=("DEPL", "ACCE_ABSOLU", "REAC_NODA"),
    TYPE_RESU=_F(TYPE="VALE_TOTA"),
    INFO=2,
)

# -----------------------------------------
# TEST DES VALEURS DE DEPLACEMENT
# VALEUR DE REFERENCE DEPL         CASTEM2000    ASTER (13.2.2)

N3_DX = 1.78952e-04

N7_DX = 3.29499e-04

N11_DX = 1.09032e-03

# N3_DX=(1.78952E-04 + 1.78493E-04)/ 2.

# N7_DX=(3.29499E-04 + 3.29271E-04)/ 2.

# N11_DX=(1.09032E-03 + 1.08972E-03)/ 2

TEST_RESU(
    RESU=(
        _F(
            REFERENCE="SOURCE_EXTERNE",
            RESULTAT=SISM_MO1,
            NOM_CHAM="DEPL",
            GROUP_NO="N3",
            NOM_CMP="DX",
            VALE_CALC=0.000178493287046,
            VALE_REFE=1.7895199999999999e-4,
            NOM_CAS="TOTA",
            PRECISION=3.0000000000000001e-3,
        ),
        _F(
            REFERENCE="SOURCE_EXTERNE",
            RESULTAT=SISM_MO1,
            NOM_CHAM="DEPL",
            GROUP_NO="N7",
            NOM_CMP="DX",
            VALE_CALC=0.00032927087105,
            VALE_REFE=3.2949900000000002e-4,
            NOM_CAS="TOTA",
            PRECISION=1.0000000000000001e-3,
        ),
        _F(
            REFERENCE="SOURCE_EXTERNE",
            RESULTAT=SISM_MO1,
            NOM_CHAM="DEPL",
            GROUP_NO="N11",
            NOM_CMP="DX",
            VALE_CALC=0.00108971744115,
            VALE_REFE=1.0903200000000001e-3,
            NOM_CAS="TOTA",
            PRECISION=1.0000000000000001e-3,
        ),
    )
)

# -----------------------------------------
# TEST DES VALEURS DE ACCE_ABSOLU
# VALEUR DE REFERENCE ACCE_ABSOLU ASTER (13.2.2)

N1_AX = 1.96200e00

N5_AX = 1.96200e00

N9_AX = 1.96200e00

TEST_RESU(
    RESU=(
        _F(
            RESULTAT=SISM_MO1,
            NOM_CHAM="ACCE_ABSOLU",
            GROUP_NO="N1",
            NOM_CMP="DX",
            VALE_CALC=1.962,
            NOM_CAS="TOTA",
        ),
        _F(
            RESULTAT=SISM_MO1,
            NOM_CHAM="ACCE_ABSOLU",
            GROUP_NO="N5",
            NOM_CMP="DX",
            VALE_CALC=1.962,
            NOM_CAS="TOTA",
        ),
        _F(
            RESULTAT=SISM_MO1,
            NOM_CHAM="ACCE_ABSOLU",
            GROUP_NO="N9",
            NOM_CMP="DX",
            VALE_CALC=1.962,
            NOM_CAS="TOTA",
        ),
    )
)

#
# -----------------------------------------
# TEST DES VALEURS DE REACTIONS
# VALEUR DE REFERENCE REAC        ASTER (13.2.2)

N1_RX = 6.696036e02

N5_RX = 1.164223e03

N9_RX = 9.281995e02

TEST_RESU(
    RESU=(
        _F(
            RESULTAT=SISM_MO1,
            NOM_CHAM="REAC_NODA",
            GROUP_NO="N1",
            NOM_CMP="DX",
            VALE_CALC=669.603610535,
            NOM_CAS="TOTA",
        ),
        _F(
            RESULTAT=SISM_MO1,
            NOM_CHAM="REAC_NODA",
            GROUP_NO="N5",
            NOM_CMP="DX",
            VALE_CALC=1164.22268299,
            NOM_CAS="TOTA",
        ),
        _F(
            RESULTAT=SISM_MO1,
            NOM_CHAM="REAC_NODA",
            GROUP_NO="N9",
            NOM_CMP="DX",
            VALE_CALC=928.199473667,
            NOM_CAS="TOTA",
        ),
    )
)

# =======================================================================
# 2/ ON ETUDIE LA STRUCTURE EN MONO-APPUI
#                           AVEC CORRECTION STATIQUE
#                           SPECTRE HORIZONTAL
#                           COMBINAISON QUADRATIQUE COMPLETE
#
# CALCUL DES MODES STATIQUES POUR LA PRISE EN COMPTE DES MODES NEGLIGES:
# -----------------------------------------------------------------------

MODE_ST1 = MODE_STATIQUE(
    MATR_RIGI=RIGIDITE,
    MATR_MASS=MASSE,
    CARA_ELEM=CARA_ELE,
    CHAM_MATER=CHAMPMAT,
    PSEUDO_MODE=(_F(AXE=("X", "Y")), _F(GROUP_NO=("N1", "N5", "N9"), AVEC_CMP=("DX", "DY"))),
)

MODE_ST1 = CALC_CHAMP(reuse=MODE_ST1, RESULTAT=MODE_ST1, CONTRAINTE=("SIEF_ELGA"))

MODE_ST1 = CALC_CHAMP(reuse=MODE_ST1, RESULTAT=MODE_ST1, FORCE=("FORC_NODA", "REAC_NODA"))
# -----------------------------------------

SISM_MO2 = COMB_SISM_MODAL(
    MODE_MECA=MODE,
    AMOR_REDUIT=0.03,
    TYPE_ANALYSE="MONO_APPUI",
    SPECTRE=(_F(LIST_AXE=("X"), SPEC_OSCI=SPECT_XY, CORR_FREQ="NON", ECHELLE=1.0),),
    MODE_CORR="OUI",
    PSEUDO_MODE=MODE_ST1,
    COMB_MODE=_F(TYPE="CQC"),
    OPTION=("DEPL", "ACCE_ABSOLU", "REAC_NODA"),
    TYPE_RESU=_F(TYPE="VALE_TOTA"),
)

# -----------------------------------------
# TEST DES VALEURS DE DEPLACEMENT
# VALEUR DE REFERENCE DEPL         CASTEM2000    ASTER (13.2.2)

N3_DX_2 = 1.78952e-04

N7_DX_2 = 3.29499e-04

N11_DX_2 = 1.09032e-03
# N3_DX_2=(1.78952E-04 + 1.78493E-04)/ 2.

# N7_DX_2=(3.29499E-04 + 3.29271E-04)/ 2.

# N11_DX_2=(1.09032E-03 + 1.08972E-03)/ 2.

TEST_RESU(
    RESU=(
        _F(
            REFERENCE="SOURCE_EXTERNE",
            RESULTAT=SISM_MO2,
            NOM_CHAM="DEPL",
            GROUP_NO="N3",
            NOM_CMP="DX",
            VALE_CALC=0.000178493681539,
            VALE_REFE=1.7895199999999999e-4,
            NOM_CAS="TOTA",
            PRECISION=3.0000000000000001e-3,
        ),
        _F(
            REFERENCE="SOURCE_EXTERNE",
            RESULTAT=SISM_MO2,
            NOM_CHAM="DEPL",
            GROUP_NO="N7",
            NOM_CMP="DX",
            VALE_CALC=0.000329270911406,
            VALE_REFE=3.2949900000000002e-4,
            NOM_CAS="TOTA",
            PRECISION=1.0000000000000001e-3,
        ),
        _F(
            REFERENCE="SOURCE_EXTERNE",
            RESULTAT=SISM_MO2,
            NOM_CHAM="DEPL",
            GROUP_NO="N11",
            NOM_CMP="DX",
            VALE_CALC=0.00108971827966,
            VALE_REFE=1.0903200000000001e-3,
            NOM_CAS="TOTA",
            PRECISION=1.0000000000000001e-3,
        ),
    )
)

# -----------------------------------------
# TEST DES VALEURS DE ACCE_ABSOLU
# VALEUR DE REFERENCE ACCE_ABSOLU       ASTER (13.2.2)

N1_AX_2 = 1.96200e00

N5_AX_2 = 1.96200e00

N9_AX_2 = 1.96200e00

TEST_RESU(
    RESU=(
        _F(
            RESULTAT=SISM_MO2,
            NOM_CHAM="ACCE_ABSOLU",
            GROUP_NO="N1",
            NOM_CMP="DX",
            VALE_CALC=1.962,
            NOM_CAS="TOTA",
        ),
        _F(
            RESULTAT=SISM_MO2,
            NOM_CHAM="ACCE_ABSOLU",
            GROUP_NO="N5",
            NOM_CMP="DX",
            VALE_CALC=1.962,
            NOM_CAS="TOTA",
        ),
        _F(
            RESULTAT=SISM_MO2,
            NOM_CHAM="ACCE_ABSOLU",
            GROUP_NO="N9",
            NOM_CMP="DX",
            VALE_CALC=1.962,
            NOM_CAS="TOTA",
        ),
    )
)

# -----------------------------------------
# TEST DES VALEURS DE REACTIONS
# VALEUR DE REFERENCE REAC  ASTER (13.2.2)

N1_RX_2 = 6.716683e02

N5_RX_2 = 1.169727e03

N9_RX_2 = 9.373269e02

#

TEST_RESU(
    RESU=(
        _F(
            RESULTAT=SISM_MO2,
            NOM_CHAM="REAC_NODA",
            GROUP_NO="N1",
            NOM_CMP="DX",
            VALE_CALC=671.668298435,
            NOM_CAS="TOTA",
        ),
        _F(
            RESULTAT=SISM_MO2,
            NOM_CHAM="REAC_NODA",
            GROUP_NO="N5",
            NOM_CMP="DX",
            VALE_CALC=1169.72688401,
            NOM_CAS="TOTA",
        ),
        _F(
            RESULTAT=SISM_MO2,
            NOM_CHAM="REAC_NODA",
            GROUP_NO="N9",
            NOM_CMP="DX",
            VALE_CALC=937.326875437,
            NOM_CAS="TOTA",
        ),
    )
)

# =======================================================================
# 4/ ON ETUDIE LA STRUCTURE EN MULTI-APPUI
#         SANS CORRECTION STATIQUE
#                           SPECTRE HORIZONTAL
#                           COMBINAISON QUADRATIQUE COMPLETE
#         SANS DEPLACEMENT RELATIF DES ANCRAGES
#         MEME EXCITATION PARTOUT
#         ON VERIFIE LES RESULTATS PAR RAPPORT AU MONO-APPUI:
# ---------------------------------------------------------
#
# CALCUL DES MODES STATIQUES AUX POINTS D'ANCRAGE:
# -------------------------------------------------

MODE_STA = MODE_STATIQUE(
    CARA_ELEM=CARA_ELE,
    CHAM_MATER=CHAMPMAT,
    MATR_RIGI=RIGIDITE,
    MATR_MASS=MASSE,
    MODE_STAT=_F(TOUT="OUI", TOUT_CMP="OUI"),
)

MODE_STA = CALC_CHAMP(reuse=MODE_STA, RESULTAT=MODE_STA, CONTRAINTE=("SIEF_ELGA"))

MODE_STA = CALC_CHAMP(reuse=MODE_STA, RESULTAT=MODE_STA, FORCE=("FORC_NODA", "REAC_NODA"))

#

SISM_MU1 = COMB_SISM_MODAL(
    MODE_MECA=MODE,
    AMOR_REDUIT=0.03,
    TYPE_ANALYSE="MULT_APPUI",
    APPUIS=(
        _F(NOM="APPUI_1", GROUP_NO=("GXXXXXX_ENCASTRE",)),
        _F(NOM="APPUI_2", GROUP_NO=("N5",)),
        _F(NOM="APPUI_3", GROUP_NO=("N9",)),
    ),
    SPECTRE=(
        _F(
            LIST_AXE=("X"),
            SPEC_OSCI=SPECT_XY,
            ECHELLE=1.0,
            CORR_FREQ="NON",
            NATURE="ACCE",
            NOM_APPUI="APPUI_1",
        ),
        _F(NOM_APPUI="APPUI_2", LIST_AXE=("X"), SPEC_OSCI=SPECT_XY),
        _F(NOM_APPUI="APPUI_3", LIST_AXE=("X"), SPEC_OSCI=SPECT_XY),
    ),
    GROUP_APPUI_CORRELE=(_F(LIST_APPUI=("APPUI_1", "APPUI_2", "APPUI_3"), NOM="GAPPUI_1"),),
    COMB_MODE=_F(TYPE="CQC"),
    OPTION=("DEPL", "REAC_NODA"),
    TYPE_RESU=_F(TYPE="VALE_TOTA"),
)

# -----------------------------------------
# TEST DES VALEURS DE DEPLACEMENT
# VALEUR DE REFERENCE DEPL         CASTEM 2000

N3_DX_4 = 1.78952e-04

N7_DX_4 = 3.29499e-04

N11_DX_4 = 1.09032e-03
# N3_DX_3=5.663E-4

# N7_DX_3=1.687E-3

# N11_DX_3=5.967E-3

TEST_RESU(
    RESU=(
        _F(
            REFERENCE="SOURCE_EXTERNE",
            RESULTAT=SISM_MU1,
            NOM_CHAM="DEPL",
            GROUP_NO="N3",
            NOM_CMP="DX",
            VALE_CALC=0.000178493287046,
            VALE_REFE=1.7895199999999999e-4,
            NOM_CAS="TOTA",
            PRECISION=3.0000000000000001e-3,
        ),
        _F(
            REFERENCE="SOURCE_EXTERNE",
            RESULTAT=SISM_MU1,
            NOM_CHAM="DEPL",
            GROUP_NO="N7",
            NOM_CMP="DX",
            VALE_CALC=0.000329270871051,
            VALE_REFE=3.2949900000000002e-4,
            NOM_CAS="TOTA",
            PRECISION=3.0000000000000001e-3,
        ),
        _F(
            REFERENCE="SOURCE_EXTERNE",
            RESULTAT=SISM_MU1,
            NOM_CHAM="DEPL",
            GROUP_NO="N11",
            NOM_CMP="DX",
            VALE_CALC=0.00108971744116,
            VALE_REFE=1.0903200000000001e-3,
            NOM_CAS="TOTA",
            PRECISION=3.0000000000000001e-3,
        ),
    )
)

#
# -----------------------------------------
# TEST DES VALEURS DE REACTIONS
# VALEUR DE REFERENCE REAC        ASTER (13.2.2) SISM_MO1

N1_RX_3 = 6.696036e02

N5_RX_3 = 1.164223e03


N9_RX_3 = 9.281995e02


TEST_RESU(
    RESU=(
        _F(
            REFERENCE="AUTRE_ASTER",
            RESULTAT=SISM_MU1,
            NOM_CHAM="REAC_NODA",
            GROUP_NO="N1",
            NOM_CMP="DX",
            VALE_CALC=669.603610535,
            VALE_REFE=669.603610535,
            NOM_CAS="TOTA",
            PRECISION=0.000001,
        ),
        _F(
            REFERENCE="AUTRE_ASTER",
            RESULTAT=SISM_MU1,
            NOM_CHAM="REAC_NODA",
            GROUP_NO="N5",
            NOM_CMP="DX",
            VALE_CALC=1164.22268299,
            VALE_REFE=1164.22268299,
            NOM_CAS="TOTA",
            PRECISION=0.000001,
        ),
        _F(
            REFERENCE="AUTRE_ASTER",
            RESULTAT=SISM_MU1,
            NOM_CHAM="REAC_NODA",
            GROUP_NO="N9",
            NOM_CMP="DX",
            VALE_CALC=928.199473668,
            VALE_REFE=928.199473667,
            NOM_CAS="TOTA",
            PRECISION=0.000001,
        ),
    )
)

#
# =======================================================================
# 5/ ON ETUDIE LA STRUCTURE EN MULTI-APPUI:
#        EXCITATION EN X ET Y
#        AVEC PRISE EN COMPTE DES MODES NEGLIGES
#        AVEC DES DEPLACEMENTS D'ANCRAGE DE 0.001 PAR RAPPORT A SA BASE
# ----------------------------------------------------------------------

SISM_MU2 = COMB_SISM_MODAL(
    MODE_MECA=MODE,
    AMOR_REDUIT=0.03,
    TYPE_ANALYSE="MULT_APPUI",
    APPUIS=(
        _F(NOM="APPUI_1", GROUP_NO=("GXXXXXX_ENCASTRE",)),
        _F(NOM="APPUI_2", GROUP_NO=("N5",)),
        _F(NOM="APPUI_3", GROUP_NO=("N9",)),
    ),
    SPECTRE=(
        _F(
            LIST_AXE=("X", "Y"),
            SPEC_OSCI=SPECT_XY,
            ECHELLE=1.0,
            CORR_FREQ="NON",
            NATURE="ACCE",
            NOM_APPUI="APPUI_1",
        ),
        _F(NOM_APPUI="APPUI_2", LIST_AXE=("X", "Y"), SPEC_OSCI=SPECT_XY, ECHELLE=1.5),
        _F(NOM_APPUI="APPUI_3", LIST_AXE=("X", "Y"), SPEC_OSCI=SPECT_XY, ECHELLE=2.0),
    ),
    GROUP_APPUI_CORRELE=(_F(LIST_APPUI=("APPUI_1", "APPUI_2", "APPUI_3"), NOM="GAPPUI_1"),),
    MODE_CORR="OUI",
    PSEUDO_MODE=MODE_ST1,
    # DEPLACEMENT RELATIF MAXIMAL
    DEPL_MULT_APPUI=(
        _F(NOM_APPUI=("APPUI_1",), MODE_STAT=MODE_STA, DX=0.0, DY=0.0),
        _F(NOM_APPUI="APPUI_2", MODE_STAT=MODE_STA, DX=0.001, DY=0.001),
        _F(NOM_APPUI="APPUI_3", MODE_STAT=MODE_STA, DX=0.001, DY=0.001),
    ),
    COMB_DDS_CORRELE="QUAD",
    COMB_MODE=_F(TYPE="CQC"),
    COMB_DIRECTION="QUAD",
    OPTION=("DEPL", "REAC_NODA"),
    TYPE_RESU=(_F(TYPE="VALE_TOTA"), _F(TYPE="VALE_DIRE", LIST_AXE=("X", "Y"))),
)

# -----------------------------------------
# TEST DES VALEURS DE DEPLACEMENT
# VALEUR DE REFERENCE DEPL         ASTER (13.2.2)
#   COMPOSANTES DX


TEST_RESU(
    RESU=(
        _F(
            RESULTAT=SISM_MU2,
            NOM_CHAM="DEPL",
            GROUP_NO="N3",
            NOM_CMP="DX",
            VALE_CALC=0.000588655242424,
            NOM_CAS="DIRE_X",
        ),
        _F(
            RESULTAT=SISM_MU2,
            NOM_CHAM="DEPL",
            GROUP_NO="N5",
            NOM_CMP="DX",
            VALE_CALC=0.001,
            NOM_CAS="DIRE_X",
        ),
        _F(
            RESULTAT=SISM_MU2,
            NOM_CHAM="DEPL",
            GROUP_NO="N7",
            NOM_CMP="DX",
            VALE_CALC=0.00115925624967,
            NOM_CAS="DIRE_X",
        ),
        _F(
            RESULTAT=SISM_MU2,
            NOM_CHAM="DEPL",
            GROUP_NO="N9",
            NOM_CMP="DX",
            VALE_CALC=0.001,
            NOM_CAS="DIRE_X",
        ),
        _F(
            RESULTAT=SISM_MU2,
            NOM_CHAM="DEPL",
            GROUP_NO="N11",
            NOM_CMP="DX",
            VALE_CALC=0.00317156222561,
            NOM_CAS="DIRE_X",
        ),
    )
)

# -----------------------------------------
# VALEUR DE REFERENCE DEPL          ASTER (13.2.2)
#   COMPOSANTES DY


TEST_RESU(
    RESU=(
        _F(
            RESULTAT=SISM_MU2,
            NOM_CHAM="DEPL",
            GROUP_NO="N3",
            NOM_CMP="DY",
            VALE_CALC=0.000588655242424,
            NOM_CAS="DIRE_Y",
        ),
        _F(
            RESULTAT=SISM_MU2,
            NOM_CHAM="DEPL",
            GROUP_NO="N5",
            NOM_CMP="DY",
            VALE_CALC=0.001,
            NOM_CAS="DIRE_Y",
        ),
        _F(
            RESULTAT=SISM_MU2,
            NOM_CHAM="DEPL",
            GROUP_NO="N7",
            NOM_CMP="DY",
            VALE_CALC=0.00115925624967,
            NOM_CAS="DIRE_Y",
        ),
        _F(
            RESULTAT=SISM_MU2,
            NOM_CHAM="DEPL",
            GROUP_NO="N9",
            NOM_CMP="DY",
            VALE_CALC=0.001,
            NOM_CAS="DIRE_Y",
        ),
        _F(
            RESULTAT=SISM_MU2,
            NOM_CHAM="DEPL",
            GROUP_NO="N11",
            NOM_CMP="DY",
            VALE_CALC=0.00317156222562,
            NOM_CAS="DIRE_Y",
        ),
    )
)

# -----------------------------------------
# VALEUR DE REFERENCE DEPL          ASTER (13.2.2)
#   COMBINAISON QUADRATIQUE


TEST_RESU(
    RESU=(
        _F(
            RESULTAT=SISM_MU2,
            NOM_CHAM="DEPL",
            GROUP_NO="N3",
            NOM_CMP="DX",
            VALE_CALC=0.000588655242424,
            NOM_CAS="TOTA",
        ),
        _F(
            RESULTAT=SISM_MU2,
            NOM_CHAM="DEPL",
            GROUP_NO="N5",
            NOM_CMP="DX",
            VALE_CALC=0.001,
            NOM_CAS="TOTA",
        ),
        _F(
            RESULTAT=SISM_MU2,
            NOM_CHAM="DEPL",
            GROUP_NO="N7",
            NOM_CMP="DX",
            VALE_CALC=0.00115925624967,
            NOM_CAS="TOTA",
        ),
        _F(
            RESULTAT=SISM_MU2,
            NOM_CHAM="DEPL",
            GROUP_NO="N9",
            NOM_CMP="DX",
            VALE_CALC=0.001,
            NOM_CAS="TOTA",
        ),
        _F(
            RESULTAT=SISM_MU2,
            NOM_CHAM="DEPL",
            GROUP_NO="N11",
            NOM_CMP="DX",
            VALE_CALC=0.00317156222561,
            NOM_CAS="TOTA",
        ),
        _F(
            RESULTAT=SISM_MU2,
            NOM_CHAM="DEPL",
            GROUP_NO="N3",
            NOM_CMP="DY",
            VALE_CALC=0.000588655242424,
            NOM_CAS="TOTA",
        ),
        _F(
            RESULTAT=SISM_MU2,
            NOM_CHAM="DEPL",
            GROUP_NO="N5",
            NOM_CMP="DY",
            VALE_CALC=0.001,
            NOM_CAS="TOTA",
        ),
        _F(
            RESULTAT=SISM_MU2,
            NOM_CHAM="DEPL",
            GROUP_NO="N7",
            NOM_CMP="DY",
            VALE_CALC=0.00115925624967,
            NOM_CAS="TOTA",
        ),
        _F(
            RESULTAT=SISM_MU2,
            NOM_CHAM="DEPL",
            GROUP_NO="N9",
            NOM_CMP="DY",
            VALE_CALC=0.001,
            NOM_CAS="TOTA",
        ),
        _F(
            RESULTAT=SISM_MU2,
            NOM_CHAM="DEPL",
            GROUP_NO="N11",
            NOM_CMP="DY",
            VALE_CALC=0.00317156222562,
            NOM_CAS="TOTA",
        ),
    )
)

# -----------------------------------------
# TEST DES VALEURS DE REACTIONS
# VALEUR DE REFERENCE REAC         ASTER (13.2.2)


TEST_RESU(
    RESU=(
        _F(
            RESULTAT=SISM_MU2,
            NOM_CHAM="REAC_NODA",
            GROUP_NO="N1",
            NOM_CMP="DX",
            VALE_CALC=1291.6487138627888,
            NOM_CAS="DIRE_X",
        ),
        _F(
            RESULTAT=SISM_MU2,
            NOM_CHAM="REAC_NODA",
            GROUP_NO="N5",
            NOM_CMP="DX",
            VALE_CALC=1991.0720706572706,
            NOM_CAS="DIRE_X",
        ),
        _F(
            RESULTAT=SISM_MU2,
            NOM_CHAM="REAC_NODA",
            GROUP_NO="N9",
            NOM_CMP="DX",
            VALE_CALC=2063.9768220424535,
            NOM_CAS="DIRE_X",
        ),
    )
)

#
# =======================================================================
# 6/ ON ETUDIE LA STRUCTURE EN MULTI-APPUI
#         AVEC CORRECTION STATIQUE
#                           SPECTRE HORIZONTAL
#                           COMBINAISON QUADRATIQUE COMPLETE
#         SANS DEPLACEMENT RELATIF DES ANCRAGES
#         MEME EXCITATION PARTOUT
#         ON VERIFIE LES RESULTATS PAR RAPPORT AU MONO-APPUI:
# ---------------------------------------------------------
#
#

#

SISM_MU6 = COMB_SISM_MODAL(
    MODE_MECA=MODE,
    AMOR_REDUIT=0.03,
    MODE_CORR="OUI",
    PSEUDO_MODE=MODE_ST1,
    TYPE_ANALYSE="MULT_APPUI",
    APPUIS=(
        _F(NOM="APPUI_1", GROUP_NO=("GXXXXXX_ENCASTRE",)),
        _F(NOM="APPUI_2", GROUP_NO=("N5",)),
        _F(NOM="APPUI_3", GROUP_NO=("N9",)),
    ),
    SPECTRE=(
        _F(NOM_APPUI="APPUI_1", LIST_AXE=("X"), SPEC_OSCI=SPECT_XY, ECHELLE=1.0),
        _F(NOM_APPUI="APPUI_2", LIST_AXE=("X"), SPEC_OSCI=SPECT_XY, ECHELLE=1.0),
        _F(NOM_APPUI="APPUI_3", LIST_AXE=("X"), SPEC_OSCI=SPECT_XY, ECHELLE=1.0),
    ),
    GROUP_APPUI_CORRELE=(_F(LIST_APPUI=("APPUI_1", "APPUI_2", "APPUI_3"), NOM="GAPPUI_1"),),
    COMB_MODE=_F(TYPE="CQC"),
    OPTION=("DEPL", "REAC_NODA"),
    TYPE_RESU=(_F(TYPE="VALE_TOTA"), _F(TYPE="VALE_DIRE", LIST_AXE=("X",))),
)

# -----------------------------------------
# TEST DES VALEURS DE DEPLACEMENT
# VALEUR DE REFERENCE DEPL         CASTEM 2000

# VALEUR DE REFERENCE DEPL         CASTEM2000    ASTER

N3_DX_2 = 1.78952e-04

N7_DX_2 = 3.29499e-04

N11_DX_2 = 1.09032e-03


TEST_RESU(
    RESU=(
        _F(
            REFERENCE="SOURCE_EXTERNE",
            RESULTAT=SISM_MU6,
            NOM_CHAM="DEPL",
            GROUP_NO="N3",
            NOM_CMP="DX",
            VALE_CALC=0.000178493533072,
            VALE_REFE=N3_DX_2,
            NOM_CAS="DIRE_X",
            PRECISION=3.0000000000000001e-3,
        ),
        _F(
            REFERENCE="SOURCE_EXTERNE",
            RESULTAT=SISM_MU6,
            NOM_CHAM="DEPL",
            GROUP_NO="N7",
            NOM_CMP="DX",
            VALE_CALC=0.00032927092263,
            VALE_REFE=N7_DX_2,
            NOM_CAS="DIRE_X",
            PRECISION=1.0000000000000001e-3,
        ),
        _F(
            REFERENCE="SOURCE_EXTERNE",
            RESULTAT=SISM_MU6,
            NOM_CHAM="DEPL",
            GROUP_NO="N11",
            NOM_CMP="DX",
            VALE_CALC=0.00108971850627,
            VALE_REFE=N11_DX_2,
            NOM_CAS="DIRE_X",
            PRECISION=1.0000000000000001e-3,
        ),
    )
)


#
# -----------------------------------------
# TEST DES VALEURS DE REACTIONS
# VALEUR DE REFERENCE REAC        ASTER  (13.2.2) SISM_MO2


N1_RX_2 = 6.716683e02

N5_RX_2 = 1.169727e03

N9_RX_2 = 9.373269e02

TEST_RESU(
    RESU=(
        _F(
            REFERENCE="AUTRE_ASTER",
            RESULTAT=SISM_MU6,
            NOM_CHAM="REAC_NODA",
            GROUP_NO="N1",
            NOM_CMP="DX",
            VALE_CALC=669.6445359675666,
            VALE_REFE=N1_RX_2,
            NOM_CAS="DIRE_X",
            PRECISION=0.004,
        ),
        _F(
            REFERENCE="AUTRE_ASTER",
            RESULTAT=SISM_MU6,
            NOM_CHAM="REAC_NODA",
            GROUP_NO="N5",
            NOM_CMP="DX",
            VALE_CALC=1164.4478950482583,
            VALE_REFE=N5_RX_2,
            NOM_CAS="DIRE_X",
            PRECISION=0.005,
        ),
        _F(
            REFERENCE="AUTRE_ASTER",
            RESULTAT=SISM_MU6,
            NOM_CHAM="REAC_NODA",
            GROUP_NO="N9",
            NOM_CMP="DX",
            VALE_CALC=929.0629972767075,
            VALE_REFE=N9_RX_2,
            NOM_CAS="DIRE_X",
            PRECISION=0.009,
        ),
    )
)

#
FIN()
#
