 TITRE
CODE_ASTER - 11.00.27 - VERSION DE DEVELOPPEMENT          - FRONTAL1         - L
 FINSF
 %
 COOR_3D
 N1        4.00000000000000E+00 -4.00000000000000E+00  0.00000000000000E+00
 N2        3.00000000000000E+00 -4.00000000000000E+00  0.00000000000000E+00
 N3        2.00000000000000E+00 -4.00000000000000E+00  0.00000000000000E+00
 N4        1.00000000000000E+00 -4.00000000000000E+00  0.00000000000000E+00
 N5        0.00000000000000E+00 -4.00000000000000E+00  0.00000000000000E+00
 N6       -1.00000000000000E+00 -4.00000000000000E+00  0.00000000000000E+00
 N7       -2.00000000000000E+00 -4.00000000000000E+00  0.00000000000000E+00
 N8       -3.00000000000000E+00 -4.00000000000000E+00  0.00000000000000E+00
 N9       -4.00000000000000E+00 -4.00000000000000E+00  0.00000000000000E+00
 N10       4.00000000000000E+00 -3.00000000000000E+00  0.00000000000000E+00
 N11       3.00000000000000E+00 -3.00000000000000E+00  0.00000000000000E+00
 N12       2.00000000000000E+00 -3.00000000000000E+00  0.00000000000000E+00
 N13       1.00000000000000E+00 -3.00000000000000E+00  0.00000000000000E+00
 N14       0.00000000000000E+00 -3.00000000000000E+00  0.00000000000000E+00
 N15      -1.00000000000000E+00 -3.00000000000000E+00  0.00000000000000E+00
 N16      -2.00000000000000E+00 -3.00000000000000E+00  0.00000000000000E+00
 N17      -3.00000000000000E+00 -3.00000000000000E+00  0.00000000000000E+00
 N18      -4.00000000000000E+00 -3.00000000000000E+00  0.00000000000000E+00
 N19       4.00000000000000E+00 -2.00000000000000E+00  0.00000000000000E+00
 N20       3.00000000000000E+00 -2.00000000000000E+00  0.00000000000000E+00
 N21       2.00000000000000E+00 -2.00000000000000E+00  0.00000000000000E+00
 N22       1.00000000000000E+00 -2.00000000000000E+00  0.00000000000000E+00
 N23       0.00000000000000E+00 -2.00000000000000E+00  0.00000000000000E+00
 N24      -1.00000000000000E+00 -2.00000000000000E+00  0.00000000000000E+00
 N25      -2.00000000000000E+00 -2.00000000000000E+00  0.00000000000000E+00
 N26      -3.00000000000000E+00 -2.00000000000000E+00  0.00000000000000E+00
 N27      -4.00000000000000E+00 -2.00000000000000E+00  0.00000000000000E+00
 N28       4.00000000000000E+00 -1.00000000000000E+00  0.00000000000000E+00
 N29       3.00000000000000E+00 -1.00000000000000E+00  0.00000000000000E+00
 N30       2.00000000000000E+00 -1.00000000000000E+00  0.00000000000000E+00
 N31       1.00000000000000E+00 -1.00000000000000E+00  0.00000000000000E+00
 N32       0.00000000000000E+00 -1.00000000000000E+00  0.00000000000000E+00
 N33      -1.00000000000000E+00 -1.00000000000000E+00  0.00000000000000E+00
 N34      -2.00000000000000E+00 -1.00000000000000E+00  0.00000000000000E+00
 N35      -3.00000000000000E+00 -1.00000000000000E+00  0.00000000000000E+00
 N36      -4.00000000000000E+00 -1.00000000000000E+00  0.00000000000000E+00
 N37       4.00000000000000E+00  0.00000000000000E+00  0.00000000000000E+00
 N38       3.00000000000000E+00  0.00000000000000E+00  0.00000000000000E+00
 N39       2.00000000000000E+00  0.00000000000000E+00  0.00000000000000E+00
 N40       1.00000000000000E+00  0.00000000000000E+00  0.00000000000000E+00
 N41       0.00000000000000E+00  0.00000000000000E+00  0.00000000000000E+00
 N42      -1.00000000000000E+00  0.00000000000000E+00  0.00000000000000E+00
 N43      -2.00000000000000E+00  0.00000000000000E+00  0.00000000000000E+00
 N44      -3.00000000000000E+00  0.00000000000000E+00  0.00000000000000E+00
 N45      -4.00000000000000E+00  0.00000000000000E+00  0.00000000000000E+00
 N46       4.00000000000000E+00  1.00000000000000E+00  0.00000000000000E+00
 N47       3.00000000000000E+00  1.00000000000000E+00  0.00000000000000E+00
 N48       2.00000000000000E+00  1.00000000000000E+00  0.00000000000000E+00
 N49       1.00000000000000E+00  1.00000000000000E+00  0.00000000000000E+00
 N50       0.00000000000000E+00  1.00000000000000E+00  0.00000000000000E+00
 N51      -1.00000000000000E+00  1.00000000000000E+00  0.00000000000000E+00
 N52      -2.00000000000000E+00  1.00000000000000E+00  0.00000000000000E+00
 N53      -3.00000000000000E+00  1.00000000000000E+00  0.00000000000000E+00
 N54      -4.00000000000000E+00  1.00000000000000E+00  0.00000000000000E+00
 N55       4.00000000000000E+00  2.00000000000000E+00  0.00000000000000E+00
 N56       3.00000000000000E+00  2.00000000000000E+00  0.00000000000000E+00
 N57       2.00000000000000E+00  2.00000000000000E+00  0.00000000000000E+00
 N58       1.00000000000000E+00  2.00000000000000E+00  0.00000000000000E+00
 N59       0.00000000000000E+00  2.00000000000000E+00  0.00000000000000E+00
 N60      -1.00000000000000E+00  2.00000000000000E+00  0.00000000000000E+00
 N61      -2.00000000000000E+00  2.00000000000000E+00  0.00000000000000E+00
 N62      -3.00000000000000E+00  2.00000000000000E+00  0.00000000000000E+00
 N63      -4.00000000000000E+00  2.00000000000000E+00  0.00000000000000E+00
 N64       4.00000000000000E+00  3.00000000000000E+00  0.00000000000000E+00
 N65       3.00000000000000E+00  3.00000000000000E+00  0.00000000000000E+00
 N66       2.00000000000000E+00  3.00000000000000E+00  0.00000000000000E+00
 N67       1.00000000000000E+00  3.00000000000000E+00  0.00000000000000E+00
 N68       0.00000000000000E+00  3.00000000000000E+00  0.00000000000000E+00
 N69      -1.00000000000000E+00  3.00000000000000E+00  0.00000000000000E+00
 N70      -2.00000000000000E+00  3.00000000000000E+00  0.00000000000000E+00
 N71      -3.00000000000000E+00  3.00000000000000E+00  0.00000000000000E+00
 N72      -4.00000000000000E+00  3.00000000000000E+00  0.00000000000000E+00
 N73       4.00000000000000E+00  4.00000000000000E+00  0.00000000000000E+00
 N74       3.00000000000000E+00  4.00000000000000E+00  0.00000000000000E+00
 N75       2.00000000000000E+00  4.00000000000000E+00  0.00000000000000E+00
 N76       1.00000000000000E+00  4.00000000000000E+00  0.00000000000000E+00
 N77       0.00000000000000E+00  4.00000000000000E+00  0.00000000000000E+00
 N78      -1.00000000000000E+00  4.00000000000000E+00  0.00000000000000E+00
 N79      -2.00000000000000E+00  4.00000000000000E+00  0.00000000000000E+00
 N80      -3.00000000000000E+00  4.00000000000000E+00  0.00000000000000E+00
 N81      -4.00000000000000E+00  4.00000000000000E+00  0.00000000000000E+00
 N82       4.00000000000000E+00  5.00000000000000E+00  0.00000000000000E+00
 N83       3.00000000000000E+00  5.00000000000000E+00  0.00000000000000E+00
 N84       2.00000000000000E+00  5.00000000000000E+00  0.00000000000000E+00
 N85       1.00000000000000E+00  5.00000000000000E+00  0.00000000000000E+00
 N86       0.00000000000000E+00  5.00000000000000E+00  0.00000000000000E+00
 N87      -1.00000000000000E+00  5.00000000000000E+00  0.00000000000000E+00
 N88      -2.00000000000000E+00  5.00000000000000E+00  0.00000000000000E+00
 N89      -3.00000000000000E+00  5.00000000000000E+00  0.00000000000000E+00
 N90      -4.00000000000000E+00  5.00000000000000E+00  0.00000000000000E+00
 N91       4.00000000000000E+00  6.00000000000000E+00  0.00000000000000E+00
 N92       3.00000000000000E+00  6.00000000000000E+00  0.00000000000000E+00
 N93       2.00000000000000E+00  6.00000000000000E+00  0.00000000000000E+00
 N94       1.00000000000000E+00  6.00000000000000E+00  0.00000000000000E+00
 N95       0.00000000000000E+00  6.00000000000000E+00  0.00000000000000E+00
 N96      -1.00000000000000E+00  6.00000000000000E+00  0.00000000000000E+00
 N97      -2.00000000000000E+00  6.00000000000000E+00  0.00000000000000E+00
 N98      -3.00000000000000E+00  6.00000000000000E+00  0.00000000000000E+00
 N99      -4.00000000000000E+00  6.00000000000000E+00  0.00000000000000E+00
 N100      4.00000000000000E+00  7.00000000000000E+00  0.00000000000000E+00
 N101      3.00000000000000E+00  7.00000000000000E+00  0.00000000000000E+00
 N102      2.00000000000000E+00  7.00000000000000E+00  0.00000000000000E+00
 N103      1.00000000000000E+00  7.00000000000000E+00  0.00000000000000E+00
 N104      0.00000000000000E+00  7.00000000000000E+00  0.00000000000000E+00
 N105     -1.00000000000000E+00  7.00000000000000E+00  0.00000000000000E+00
 N106     -2.00000000000000E+00  7.00000000000000E+00  0.00000000000000E+00
 N107     -3.00000000000000E+00  7.00000000000000E+00  0.00000000000000E+00
 N108     -4.00000000000000E+00  7.00000000000000E+00  0.00000000000000E+00
 N109      4.00000000000000E+00  8.00000000000000E+00  0.00000000000000E+00
 N110      3.00000000000000E+00  8.00000000000000E+00  0.00000000000000E+00
 N111      2.00000000000000E+00  8.00000000000000E+00  0.00000000000000E+00
 N112      1.00000000000000E+00  8.00000000000000E+00  0.00000000000000E+00
 N113      0.00000000000000E+00  8.00000000000000E+00  0.00000000000000E+00
 N114     -1.00000000000000E+00  8.00000000000000E+00  0.00000000000000E+00
 N115     -2.00000000000000E+00  8.00000000000000E+00  0.00000000000000E+00
 N116     -3.00000000000000E+00  8.00000000000000E+00  0.00000000000000E+00
 N117     -4.00000000000000E+00  8.00000000000000E+00  0.00000000000000E+00
 N118      4.00000000000000E+00  9.00000000000000E+00  0.00000000000000E+00
 N119      3.00000000000000E+00  9.00000000000000E+00  0.00000000000000E+00
 N120      2.00000000000000E+00  9.00000000000000E+00  0.00000000000000E+00
 N121      1.00000000000000E+00  9.00000000000000E+00  0.00000000000000E+00
 N122      0.00000000000000E+00  9.00000000000000E+00  0.00000000000000E+00
 N123     -1.00000000000000E+00  9.00000000000000E+00  0.00000000000000E+00
 N124     -2.00000000000000E+00  9.00000000000000E+00  0.00000000000000E+00
 N125     -3.00000000000000E+00  9.00000000000000E+00  0.00000000000000E+00
 N126     -4.00000000000000E+00  9.00000000000000E+00  0.00000000000000E+00
 N127      4.00000000000000E+00  1.00000000000000E+01  0.00000000000000E+00
 N128      3.00000000000000E+00  1.00000000000000E+01  0.00000000000000E+00
 N129      2.00000000000000E+00  1.00000000000000E+01  0.00000000000000E+00
 N130      1.00000000000000E+00  1.00000000000000E+01  0.00000000000000E+00
 N131      0.00000000000000E+00  1.00000000000000E+01  0.00000000000000E+00
 N132     -1.00000000000000E+00  1.00000000000000E+01  0.00000000000000E+00
 N133     -2.00000000000000E+00  1.00000000000000E+01  0.00000000000000E+00
 N134     -3.00000000000000E+00  1.00000000000000E+01  0.00000000000000E+00
 N135     -4.00000000000000E+00  1.00000000000000E+01  0.00000000000000E+00
 N136      4.00000000000000E+00  1.10000000000000E+01  0.00000000000000E+00
 N137      3.00000000000000E+00  1.10000000000000E+01  0.00000000000000E+00
 N138      2.00000000000000E+00  1.10000000000000E+01  0.00000000000000E+00
 N139      1.00000000000000E+00  1.10000000000000E+01  0.00000000000000E+00
 N140      0.00000000000000E+00  1.10000000000000E+01  0.00000000000000E+00
 N141     -1.00000000000000E+00  1.10000000000000E+01  0.00000000000000E+00
 N142     -2.00000000000000E+00  1.10000000000000E+01  0.00000000000000E+00
 N143     -3.00000000000000E+00  1.10000000000000E+01  0.00000000000000E+00
 N144     -4.00000000000000E+00  1.10000000000000E+01  0.00000000000000E+00
 N145      4.00000000000000E+00  1.20000000000000E+01  0.00000000000000E+00
 N146      3.00000000000000E+00  1.20000000000000E+01  0.00000000000000E+00
 N147      2.00000000000000E+00  1.20000000000000E+01  0.00000000000000E+00
 N148      1.00000000000000E+00  1.20000000000000E+01  0.00000000000000E+00
 N149      0.00000000000000E+00  1.20000000000000E+01  0.00000000000000E+00
 N150     -1.00000000000000E+00  1.20000000000000E+01  0.00000000000000E+00
 N151     -2.00000000000000E+00  1.20000000000000E+01  0.00000000000000E+00
 N152     -3.00000000000000E+00  1.20000000000000E+01  0.00000000000000E+00
 N153     -4.00000000000000E+00  1.20000000000000E+01  0.00000000000000E+00
 N154      4.00000000000000E+00  1.30000000000000E+01  0.00000000000000E+00
 N155      3.00000000000000E+00  1.30000000000000E+01  0.00000000000000E+00
 N156      2.00000000000000E+00  1.30000000000000E+01  0.00000000000000E+00
 N157      1.00000000000000E+00  1.30000000000000E+01  0.00000000000000E+00
 N158      0.00000000000000E+00  1.30000000000000E+01  0.00000000000000E+00
 N159     -1.00000000000000E+00  1.30000000000000E+01  0.00000000000000E+00
 N160     -2.00000000000000E+00  1.30000000000000E+01  0.00000000000000E+00
 N161     -3.00000000000000E+00  1.30000000000000E+01  0.00000000000000E+00
 N162     -4.00000000000000E+00  1.30000000000000E+01  0.00000000000000E+00
 N163      4.00000000000000E+00  1.40000000000000E+01  0.00000000000000E+00
 N164      3.00000000000000E+00  1.40000000000000E+01  0.00000000000000E+00
 N165      2.00000000000000E+00  1.40000000000000E+01  0.00000000000000E+00
 N166      1.00000000000000E+00  1.40000000000000E+01  0.00000000000000E+00
 N167      0.00000000000000E+00  1.40000000000000E+01  0.00000000000000E+00
 N168     -1.00000000000000E+00  1.40000000000000E+01  0.00000000000000E+00
 N169     -2.00000000000000E+00  1.40000000000000E+01  0.00000000000000E+00
 N170     -3.00000000000000E+00  1.40000000000000E+01  0.00000000000000E+00
 N171     -4.00000000000000E+00  1.40000000000000E+01  0.00000000000000E+00
 N172      4.00000000000000E+00  1.50000000000000E+01  0.00000000000000E+00
 N173      4.00000000000000E+00  1.60000000000000E+01  0.00000000000000E+00
 N174      4.00000000000000E+00  1.70000000000000E+01  0.00000000000000E+00
 N175      4.00000000000000E+00  1.80000000000000E+01  0.00000000000000E+00
 N176      4.00000000000000E+00  1.90000000000000E+01  0.00000000000000E+00
 N177      4.00000000000000E+00  2.00000000000000E+01  0.00000000000000E+00
 N178      3.00000000000000E+00  1.50000000000000E+01  0.00000000000000E+00
 N179      2.00000000000000E+00  1.50000000000000E+01  0.00000000000000E+00
 N180      1.00000000000000E+00  1.50000000000000E+01  0.00000000000000E+00
 N181      0.00000000000000E+00  1.50000000000000E+01  0.00000000000000E+00
 N182     -1.00000000000000E+00  1.50000000000000E+01  0.00000000000000E+00
 N183     -2.00000000000000E+00  1.50000000000000E+01  0.00000000000000E+00
 N184     -3.00000000000000E+00  1.50000000000000E+01  0.00000000000000E+00
 N185     -4.00000000000000E+00  1.50000000000000E+01  0.00000000000000E+00
 N186      3.00000000000000E+00  1.60000000000000E+01  0.00000000000000E+00
 N187      3.00000000000000E+00  1.70000000000000E+01  0.00000000000000E+00
 N188      3.00000000000000E+00  1.80000000000000E+01  0.00000000000000E+00
 N189      3.00000000000000E+00  1.90000000000000E+01  0.00000000000000E+00
 N190      3.00000000000000E+00  2.00000000000000E+01  0.00000000000000E+00
 N191      2.00000000000000E+00  1.60000000000000E+01  0.00000000000000E+00
 N192      1.00000000000000E+00  1.60000000000000E+01  0.00000000000000E+00
 N193      0.00000000000000E+00  1.60000000000000E+01  0.00000000000000E+00
 N194     -1.00000000000000E+00  1.60000000000000E+01  0.00000000000000E+00
 N195     -2.00000000000000E+00  1.60000000000000E+01  0.00000000000000E+00
 N196     -3.00000000000000E+00  1.60000000000000E+01  0.00000000000000E+00
 N197     -4.00000000000000E+00  1.60000000000000E+01  0.00000000000000E+00
 N198      2.00000000000000E+00  1.70000000000000E+01  0.00000000000000E+00
 N199      2.00000000000000E+00  1.80000000000000E+01  0.00000000000000E+00
 N200      2.00000000000000E+00  1.90000000000000E+01  0.00000000000000E+00
 N201      2.00000000000000E+00  2.00000000000000E+01  0.00000000000000E+00
 N202      1.00000000000000E+00  1.70000000000000E+01  0.00000000000000E+00
 N203      0.00000000000000E+00  1.70000000000000E+01  0.00000000000000E+00
 N204     -1.00000000000000E+00  1.70000000000000E+01  0.00000000000000E+00
 N205     -4.00000000000000E+00  2.00000000000000E+01  0.00000000000000E+00
 N206     -4.00000000000000E+00  1.90000000000000E+01  0.00000000000000E+00
 N207     -2.00000000000000E+00  1.70000000000000E+01  0.00000000000000E+00
 N208     -3.00000000000000E+00  1.70000000000000E+01  0.00000000000000E+00
 N209     -4.00000000000000E+00  1.80000000000000E+01  0.00000000000000E+00
 N210     -4.00000000000000E+00  1.70000000000000E+01  0.00000000000000E+00
 N211      1.00000000000000E+00  1.80000000000000E+01  0.00000000000000E+00
 N212      1.00000000000000E+00  1.90000000000000E+01  0.00000000000000E+00
 N213      1.00000000000000E+00  2.00000000000000E+01  0.00000000000000E+00
 N214      0.00000000000000E+00  1.80000000000000E+01  0.00000000000000E+00
 N215     -3.00000000000000E+00  2.00000000000000E+01  0.00000000000000E+00
 N216     -1.00000000000000E+00  1.80000000000000E+01  0.00000000000000E+00
 N217     -2.00000000000000E+00  1.80000000000000E+01  0.00000000000000E+00
 N218     -3.00000000000000E+00  1.90000000000000E+01  0.00000000000000E+00
 N219     -3.00000000000000E+00  1.80000000000000E+01  0.00000000000000E+00
 N220      0.00000000000000E+00  1.90000000000000E+01  0.00000000000000E+00
 N221      0.00000000000000E+00  2.00000000000000E+01  0.00000000000000E+00
 N222     -1.00000000000000E+00  1.90000000000000E+01  0.00000000000000E+00
 N223     -2.00000000000000E+00  2.00000000000000E+01  0.00000000000000E+00
 N224     -2.00000000000000E+00  1.90000000000000E+01  0.00000000000000E+00
 N225     -1.00000000000000E+00  2.00000000000000E+01  0.00000000000000E+00
 FINSF
 %
 QUAD4   
 M1       N9       N18      N17      N8      
 M2       N8       N17      N16      N7      
 M3       N7       N16      N15      N6      
 M4       N6       N15      N14      N5      
 M5       N5       N14      N13      N4      
 M6       N4       N13      N12      N3      
 M7       N3       N12      N11      N2      
 M8       N2       N11      N10      N1      
 M9       N18      N27      N26      N17     
 M10      N17      N26      N25      N16     
 M11      N16      N25      N24      N15     
 M12      N15      N24      N23      N14     
 M13      N14      N23      N22      N13     
 M14      N13      N22      N21      N12     
 M15      N12      N21      N20      N11     
 M16      N11      N20      N19      N10     
 M17      N27      N36      N35      N26     
 M18      N26      N35      N34      N25     
 M19      N25      N34      N33      N24     
 M20      N24      N33      N32      N23     
 M21      N23      N32      N31      N22     
 M22      N22      N31      N30      N21     
 M23      N21      N30      N29      N20     
 M24      N20      N29      N28      N19     
 M25      N36      N45      N44      N35     
 M26      N35      N44      N43      N34     
 M27      N34      N43      N42      N33     
 M28      N33      N42      N41      N32     
 M29      N32      N41      N40      N31     
 M30      N31      N40      N39      N30     
 M31      N30      N39      N38      N29     
 M32      N29      N38      N37      N28     
 M33      N45      N54      N53      N44     
 M34      N44      N53      N52      N43     
 M35      N43      N52      N51      N42     
 M36      N42      N51      N50      N41     
 M37      N41      N50      N49      N40     
 M38      N40      N49      N48      N39     
 M39      N39      N48      N47      N38     
 M40      N38      N47      N46      N37     
 M41      N54      N63      N62      N53     
 M42      N53      N62      N61      N52     
 M43      N52      N61      N60      N51     
 M44      N51      N60      N59      N50     
 M45      N50      N59      N58      N49     
 M46      N49      N58      N57      N48     
 M47      N48      N57      N56      N47     
 M48      N47      N56      N55      N46     
 M49      N63      N72      N71      N62     
 M50      N62      N71      N70      N61     
 M51      N61      N70      N69      N60     
 M52      N60      N69      N68      N59     
 M53      N59      N68      N67      N58     
 M54      N58      N67      N66      N57     
 M55      N57      N66      N65      N56     
 M56      N56      N65      N64      N55     
 M57      N72      N81      N80      N71     
 M58      N71      N80      N79      N70     
 M59      N70      N79      N78      N69     
 M60      N69      N78      N77      N68     
 M61      N68      N77      N76      N67     
 M62      N67      N76      N75      N66     
 M63      N66      N75      N74      N65     
 M64      N65      N74      N73      N64     
 M65      N153     N162     N161     N152    
 M66      N152     N161     N160     N151    
 M67      N151     N160     N159     N150    
 M68      N150     N159     N158     N149    
 M69      N149     N158     N157     N148    
 M70      N148     N157     N156     N147    
 M71      N147     N156     N155     N146    
 M72      N146     N155     N154     N145    
 M73      N162     N171     N170     N161    
 M74      N161     N170     N169     N160    
 M75      N160     N169     N168     N159    
 M76      N159     N168     N167     N158    
 M77      N158     N167     N166     N157    
 M78      N157     N166     N165     N156    
 M79      N156     N165     N164     N155    
 M80      N155     N164     N163     N154    
 M81      N171     N185     N184     N170    
 M82      N170     N184     N183     N169    
 M83      N169     N183     N182     N168    
 M84      N168     N182     N181     N167    
 M85      N167     N181     N180     N166    
 M86      N166     N180     N179     N165    
 M87      N165     N179     N178     N164    
 M88      N164     N178     N172     N163    
 M89      N185     N197     N196     N184    
 M90      N184     N196     N195     N183    
 M91      N183     N195     N194     N182    
 M92      N182     N194     N193     N181    
 M93      N181     N193     N192     N180    
 M94      N180     N192     N191     N179    
 M95      N179     N191     N186     N178    
 M96      N178     N186     N173     N172    
 M97      N197     N210     N208     N196    
 M98      N196     N208     N207     N195    
 M99      N195     N207     N204     N194    
 M100     N194     N204     N203     N193    
 M101     N193     N203     N202     N192    
 M102     N192     N202     N198     N191    
 M103     N191     N198     N187     N186    
 M104     N186     N187     N174     N173    
 M105     N210     N209     N219     N208    
 M106     N208     N219     N217     N207    
 M107     N207     N217     N216     N204    
 M108     N204     N216     N214     N203    
 M109     N203     N214     N211     N202    
 M110     N202     N211     N199     N198    
 M111     N198     N199     N188     N187    
 M112     N187     N188     N175     N174    
 M113     N209     N206     N218     N219    
 M114     N219     N218     N224     N217    
 M115     N217     N224     N222     N216    
 M116     N216     N222     N220     N214    
 M117     N214     N220     N212     N211    
 M118     N211     N212     N200     N199    
 M119     N199     N200     N189     N188    
 M120     N188     N189     N176     N175    
 M121     N206     N205     N215     N218    
 M122     N218     N215     N223     N224    
 M123     N224     N223     N225     N222    
 M124     N222     N225     N221     N220    
 M125     N220     N221     N213     N212    
 M126     N212     N213     N201     N200    
 M127     N200     N201     N190     N189    
 M128     N189     N190     N177     N176    
 M129     N81      N90      N89      N80     
 M130     N80      N89      N88      N79     
 M131     N79      N88      N87      N78     
 M132     N78      N87      N86      N77     
 M133     N77      N86      N85      N76     
 M134     N76      N85      N84      N75     
 M135     N75      N84      N83      N74     
 M136     N74      N83      N82      N73     
 M137     N90      N99      N98      N89     
 M138     N89      N98      N97      N88     
 M139     N88      N97      N96      N87     
 M140     N87      N96      N95      N86     
 M141     N86      N95      N94      N85     
 M142     N85      N94      N93      N84     
 M143     N84      N93      N92      N83     
 M144     N83      N92      N91      N82     
 M145     N99      N108     N107     N98     
 M146     N98      N107     N106     N97     
 M147     N97      N106     N105     N96     
 M148     N96      N105     N104     N95     
 M149     N95      N104     N103     N94     
 M150     N94      N103     N102     N93     
 M151     N93      N102     N101     N92     
 M152     N92      N101     N100     N91     
 M153     N108     N117     N116     N107    
 M154     N107     N116     N115     N106    
 M155     N106     N115     N114     N105    
 M156     N105     N114     N113     N104    
 M157     N104     N113     N112     N103    
 M158     N103     N112     N111     N102    
 M159     N102     N111     N110     N101    
 M160     N101     N110     N109     N100    
 M161     N117     N126     N125     N116    
 M162     N116     N125     N124     N115    
 M163     N115     N124     N123     N114    
 M164     N114     N123     N122     N113    
 M165     N113     N122     N121     N112    
 M166     N112     N121     N120     N111    
 M167     N111     N120     N119     N110    
 M168     N110     N119     N118     N109    
 M169     N126     N135     N134     N125    
 M170     N125     N134     N133     N124    
 M171     N124     N133     N132     N123    
 M172     N123     N132     N131     N122    
 M173     N122     N131     N130     N121    
 M174     N121     N130     N129     N120    
 M175     N120     N129     N128     N119    
 M176     N119     N128     N127     N118    
 M177     N135     N144     N143     N134    
 M178     N134     N143     N142     N133    
 M179     N133     N142     N141     N132    
 M180     N132     N141     N140     N131    
 M181     N131     N140     N139     N130    
 M182     N130     N139     N138     N129    
 M183     N129     N138     N137     N128    
 M184     N128     N137     N136     N127    
 M185     N144     N153     N152     N143    
 M186     N143     N152     N151     N142    
 M187     N142     N151     N150     N141    
 M188     N141     N150     N149     N140    
 M189     N140     N149     N148     N139    
 M190     N139     N148     N147     N138    
 M191     N138     N147     N146     N137    
 M192     N137     N146     N145     N136    
 FINSF
 %
 GROUP_NO
 P1                      
 N9      
 FINSF
 %
 GROUP_NO
 P2                      
 N1      
 FINSF
 %
 GROUP_NO
 PM                      
 N113    
 FINSF
 %
 GROUP_NO
 PM2                     
 N77     
 FINSF
 %
 GROUP_NO
 PM3                     
 N149    
 FINSF
 %
 GROUP_MA
 SBAST                   
 M1       M2       M3       M4       M5       M6       M7      
 M8       M9       M10      M11      M12      M13      M14     
 M15      M16      M17      M18      M19      M20      M21     
 M22      M23      M24      M25      M26      M27      M28     
 M29      M30      M31      M32      M33      M34      M35     
 M36      M37      M38      M39      M40      M41      M42     
 M43      M44      M45      M46      M47      M48      M49     
 M50      M51      M52      M53      M54      M55      M56     
 M57      M58      M59      M60      M61      M62      M63     
 M64      M65      M66      M67      M68      M69      M70     
 M71      M72      M73      M74      M75      M76      M77     
 M78      M79      M80      M81      M82      M83      M84     
 M85      M86      M87      M88      M89      M90      M91     
 M92      M93      M94      M95      M96      M97      M98     
 M99      M100     M101     M102     M103     M104     M105    
 M106     M107     M108     M109     M110     M111     M112    
 M113     M114     M115     M116     M117     M118     M119    
 M120     M121     M122     M123     M124     M125     M126    
 M127     M128     M129     M130     M131     M132     M133    
 M134     M135     M136     M137     M138     M139     M140    
 M141     M142     M143     M144     M145     M146     M147    
 M148     M149     M150     M151     M152     M153     M154    
 M155     M156     M157     M158     M159     M160     M161    
 M162     M163     M164     M165     M166     M167     M168    
 M169     M170     M171     M172     M173     M174     M175    
 M176     M177     M178     M179     M180     M181     M182    
 M183     M184     M185     M186     M187     M188     M189    
 M190     M191     M192    
 FINSF
 %
 GROUP_MA
 SBAS1                   
 M1       M2       M3       M4       M5       M6       M7      
 M8       M9       M10      M11      M12      M13      M14     
 M15      M16      M17      M18      M19      M20      M21     
 M22      M23      M24      M25      M26      M27      M28     
 M29      M30      M31      M32      M33      M34      M35     
 M36      M37      M38      M39      M40      M41      M42     
 M43      M44      M45      M46      M47      M48      M49     
 M50      M51      M52      M53      M54      M55      M56     
 M57      M58      M59      M60      M61      M62      M63     
 M64     
 FINSF
 %
 GROUP_MA
 SBAS                    
 M1       M2       M3       M4       M5       M6       M7      
 M8       M9       M10      M11      M12      M13      M14     
 M15      M16      M17      M18      M19      M20      M21     
 M22      M23      M24      M25      M26      M27      M28     
 M29      M30      M31      M32      M33      M34      M35     
 M36      M37      M38      M39      M40      M41      M42     
 M43      M44      M45      M46      M47      M48      M49     
 M50      M51      M52      M53      M54      M55      M56     
 M57      M58      M59      M60      M61      M62      M63     
 M64      M65      M66      M67      M68      M69      M70     
 M71      M72      M73      M74      M75      M76      M77     
 M78      M79      M80      M81      M82      M83      M84     
 M85      M86      M87      M88      M89      M90      M91     
 M92      M93      M94      M95      M96      M97      M98     
 M99      M100     M101     M102     M103     M104     M105    
 M106     M107     M108     M109     M110     M111     M112    
 M113     M114     M115     M116     M117     M118     M119    
 M120     M121     M122     M123     M124     M125     M126    
 M127     M128    
 FINSF
 %
 GROUP_MA
 SBAS2                   
 M65      M66      M67      M68      M69      M70      M71     
 M72      M73      M74      M75      M76      M77      M78     
 M79      M80      M81      M82      M83      M84      M85     
 M86      M87      M88      M89      M90      M91      M92     
 M93      M94      M95      M96      M97      M98      M99     
 M100     M101     M102     M103     M104     M105     M106    
 M107     M108     M109     M110     M111     M112     M113    
 M114     M115     M116     M117     M118     M119     M120    
 M121     M122     M123     M124     M125     M126     M127    
 M128    
 FINSF
 %
 GROUP_MA
 SBASM                   
 M129     M130     M131     M132     M133     M134     M135    
 M136     M137     M138     M139     M140     M141     M142    
 M143     M144     M145     M146     M147     M148     M149    
 M150     M151     M152     M153     M154     M155     M156    
 M157     M158     M159     M160     M161     M162     M163    
 M164     M165     M166     M167     M168     M169     M170    
 M171     M172     M173     M174     M175     M176     M177    
 M178     M179     M180     M181     M182     M183     M184    
 M185     M186     M187     M188     M189     M190     M191    
 M192    
 FINSF
 %
 FIN
