 TITRE
CODE_ASTER - 11.00.27 - VERSION DE DEVELOPPEMENT          - FRONTAL1         - L
 FINSF
 %
 COOR_3D
 N1        4.00000000000000E+00  9.60000000000000E+00  5.00000000000000E+00
 N2        4.00000000000000E+00  1.06000000000000E+01  5.00000000000000E+00
 N3        4.00000000000000E+00  1.16000000000000E+01  5.00000000000000E+00
 N4        4.00000000000000E+00  1.26000000000000E+01  5.00000000000000E+00
 N5        3.00000000000000E+00  1.26000000000000E+01  5.00000000000000E+00
 N6        2.00000000000000E+00  1.26000000000000E+01  5.00000000000000E+00
 N7        1.00000000000000E+00  1.26000000000000E+01  5.00000000000000E+00
 N8        4.00000000000000E+00  8.60000000000000E+00  5.00000000000000E+00
 N9        4.00000000000000E+00  8.60000000000000E+00  4.00000005960465E+00
 N10       4.00000000000000E+00  9.60000000000000E+00  4.00000005960465E+00
 N11       4.00000000000000E+00  1.06000000000000E+01  4.00000005960465E+00
 N12       4.00000000000000E+00  1.16000000000000E+01  4.00000005960465E+00
 N13       4.00000000000000E+00  1.26000000000000E+01  4.00000005960465E+00
 N14       3.00000000000000E+00  1.26000000000000E+01  4.00000005960465E+00
 N15       2.00000000000000E+00  1.26000000000000E+01  4.00000005960465E+00
 N16       0.00000000000000E+00  1.26000000000000E+01  5.00000000000000E+00
 N17       1.00000000000000E+00  1.26000000000000E+01  4.00000005960465E+00
 N18       0.00000000000000E+00  1.26000000000000E+01  4.00000005960465E+00
 N19       4.00000000000000E+00  7.60000000000000E+00  5.00000000000000E+00
 N20       4.00000000000000E+00  7.60000000000000E+00  4.00000005960465E+00
 N21       4.00000000000000E+00  9.60000000000000E+00  3.00000004470348E+00
 N22       4.00000000000000E+00  8.60000000000000E+00  3.00000004470348E+00
 N23       4.00000000000000E+00  7.60000000000000E+00  3.00000004470348E+00
 N24       4.00000000000000E+00  1.06000000000000E+01  3.00000004470348E+00
 N25       4.00000000000000E+00  1.16000000000000E+01  3.00000004470348E+00
 N26       4.00000000000000E+00  1.26000000000000E+01  3.00000004470348E+00
 N27       3.00000000000000E+00  1.26000000000000E+01  3.00000004470348E+00
 N28       2.00000000000000E+00  1.26000000000000E+01  3.00000004470348E+00
 N29      -1.00000000000000E+00  1.26000000000000E+01  5.00000000000000E+00
 N30       1.00000000000000E+00  1.26000000000000E+01  3.00000004470348E+00
 N31      -1.00000000000000E+00  1.26000000000000E+01  4.00000005960465E+00
 N32       0.00000000000000E+00  1.26000000000000E+01  3.00000004470348E+00
 N33      -1.00000000000000E+00  1.26000000000000E+01  3.00000004470348E+00
 N34       4.00000000000000E+00  6.60000000000000E+00  5.00000000000000E+00
 N35       4.00000000000000E+00  1.06000000000000E+01  2.00000002980232E+00
 N36       4.00000000000000E+00  6.60000000000000E+00  4.00000005960465E+00
 N37       4.00000000000000E+00  9.60000000000000E+00  2.00000002980232E+00
 N38       4.00000000000000E+00  6.60000000000000E+00  3.00000004470348E+00
 N39       4.00000000000000E+00  8.60000000000000E+00  2.00000002980232E+00
 N40       4.00000000000000E+00  7.60000000000000E+00  2.00000002980232E+00
 N41       4.00000000000000E+00  6.60000000000000E+00  2.00000002980232E+00
 N42       4.00000000000000E+00  1.16000000000000E+01  2.00000002980232E+00
 N43       4.00000000000000E+00  1.26000000000000E+01  2.00000002980232E+00
 N44       3.00000000000000E+00  1.26000000000000E+01  2.00000002980232E+00
 N45       2.00000000000000E+00  1.26000000000000E+01  2.00000002980232E+00
 N46      -2.00000000000000E+00  1.26000000000000E+01  5.00000000000000E+00
 N47       1.00000000000000E+00  1.26000000000000E+01  2.00000002980232E+00
 N48      -2.00000000000000E+00  1.26000000000000E+01  4.00000005960465E+00
 N49       0.00000000000000E+00  1.26000000000000E+01  2.00000002980232E+00
 N50      -2.00000000000000E+00  1.26000000000000E+01  3.00000004470348E+00
 N51      -1.00000000000000E+00  1.26000000000000E+01  2.00000002980232E+00
 N52      -2.00000000000000E+00  1.26000000000000E+01  2.00000002980232E+00
 N53       4.00000000000000E+00  1.16000000000000E+01  1.00000001490116E+00
 N54       4.00000000000000E+00  5.60000000000000E+00  5.00000000000000E+00
 N55       4.00000000000000E+00  1.06000000000000E+01  1.00000001490116E+00
 N56       4.00000000000000E+00  5.60000000000000E+00  4.00000005960465E+00
 N57       4.00000000000000E+00  9.60000000000000E+00  1.00000001490116E+00
 N58       4.00000000000000E+00  5.60000000000000E+00  3.00000004470348E+00
 N59       4.00000000000000E+00  8.60000000000000E+00  1.00000001490116E+00
 N60       4.00000000000000E+00  5.60000000000000E+00  2.00000002980232E+00
 N61       4.00000000000000E+00  7.60000000000000E+00  1.00000001490116E+00
 N62       4.00000000000000E+00  6.60000000000000E+00  1.00000001490116E+00
 N63       4.00000000000000E+00  5.60000000000000E+00  1.00000001490116E+00
 N64       4.00000000000000E+00  1.26000000000000E+01  1.00000001490116E+00
 N65       3.00000000000000E+00  1.26000000000000E+01  1.00000001490116E+00
 N66       2.00000000000000E+00  1.26000000000000E+01  1.00000001490116E+00
 N67      -3.00000000000000E+00  1.26000000000000E+01  5.00000000000000E+00
 N68       1.00000000000000E+00  1.26000000000000E+01  1.00000001490116E+00
 N69      -3.00000000000000E+00  1.26000000000000E+01  4.00000005960465E+00
 N70       0.00000000000000E+00  1.26000000000000E+01  1.00000001490116E+00
 N71      -3.00000000000000E+00  1.26000000000000E+01  3.00000004470348E+00
 N72      -1.00000000000000E+00  1.26000000000000E+01  1.00000001490116E+00
 N73      -3.00000000000000E+00  1.26000000000000E+01  2.00000002980232E+00
 N74      -2.00000000000000E+00  1.26000000000000E+01  1.00000001490116E+00
 N75      -3.00000000000000E+00  1.26000000000000E+01  1.00000001490116E+00
 N76       4.00000000000000E+00  1.26000000000000E+01  0.00000000000000E+00
 N77       4.00000000000000E+00  1.16000000000000E+01  0.00000000000000E+00
 N78       4.00000000000000E+00  4.60000000000000E+00  5.00000000000000E+00
 N79       4.00000000000000E+00  1.06000000000000E+01  0.00000000000000E+00
 N80       4.00000000000000E+00  4.60000000000000E+00  4.00000005960465E+00
 N81       4.00000000000000E+00  9.60000000000000E+00  0.00000000000000E+00
 N82       4.00000000000000E+00  4.60000000000000E+00  3.00000004470348E+00
 N83       4.00000000000000E+00  8.60000000000000E+00  0.00000000000000E+00
 N84       4.00000000000000E+00  4.60000000000000E+00  2.00000002980232E+00
 N85       4.00000000000000E+00  7.60000000000000E+00  0.00000000000000E+00
 N86       4.00000000000000E+00  4.60000000000000E+00  1.00000001490116E+00
 N87       4.00000000000000E+00  6.60000000000000E+00  0.00000000000000E+00
 N88       4.00000000000000E+00  4.60000000000000E+00  0.00000000000000E+00
 N89       4.00000000000000E+00  5.60000000000000E+00  0.00000000000000E+00
 N90       3.00000000000000E+00  1.26000000000000E+01  0.00000000000000E+00
 N91       2.00000000000000E+00  1.26000000000000E+01  0.00000000000000E+00
 N92      -4.00000000000000E+00  1.26000000000000E+01  5.00000000000000E+00
 N93       1.00000000000000E+00  1.26000000000000E+01  0.00000000000000E+00
 N94      -4.00000000000000E+00  1.26000000000000E+01  4.00000005960465E+00
 N95       0.00000000000000E+00  1.26000000000000E+01  0.00000000000000E+00
 N96      -4.00000000000000E+00  1.26000000000000E+01  3.00000004470348E+00
 N97      -1.00000000000000E+00  1.26000000000000E+01  0.00000000000000E+00
 N98      -4.00000000000000E+00  1.26000000000000E+01  2.00000002980232E+00
 N99      -2.00000000000000E+00  1.26000000000000E+01  0.00000000000000E+00
 N100     -4.00000000000000E+00  1.26000000000000E+01  1.00000001490116E+00
 N101     -3.00000000000000E+00  1.26000000000000E+01  0.00000000000000E+00
 N102     -4.00000000000000E+00  1.26000000000000E+01  0.00000000000000E+00
 N103      3.00000000000000E+00  1.16000000000000E+01  0.00000000000000E+00
 N104      3.00000000000000E+00  4.60000000000000E+00  5.00000000000000E+00
 N105      3.00000000000000E+00  1.06000000000000E+01  0.00000000000000E+00
 N106      3.00000000000000E+00  4.60000000000000E+00  4.00000005960465E+00
 N107      3.00000000000000E+00  9.60000000000000E+00  0.00000000000000E+00
 N108      3.00000000000000E+00  4.60000000000000E+00  3.00000004470348E+00
 N109      3.00000000000000E+00  8.60000000000000E+00  0.00000000000000E+00
 N110      3.00000000000000E+00  4.60000000000000E+00  2.00000002980232E+00
 N111      3.00000000000000E+00  7.60000000000000E+00  0.00000000000000E+00
 N112      3.00000000000000E+00  4.60000000000000E+00  1.00000001490116E+00
 N113      3.00000000000000E+00  6.60000000000000E+00  0.00000000000000E+00
 N114      3.00000000000000E+00  4.60000000000000E+00  0.00000000000000E+00
 N115      3.00000000000000E+00  5.60000000000000E+00  0.00000000000000E+00
 N116      2.00000000000000E+00  1.16000000000000E+01  0.00000000000000E+00
 N117     -4.00000000000000E+00  1.16000000000000E+01  5.00000000000000E+00
 N118      1.00000000000000E+00  1.16000000000000E+01  0.00000000000000E+00
 N119     -4.00000000000000E+00  1.16000000000000E+01  4.00000005960465E+00
 N120      0.00000000000000E+00  1.16000000000000E+01  0.00000000000000E+00
 N121     -4.00000000000000E+00  1.16000000000000E+01  3.00000004470348E+00
 N122     -1.00000000000000E+00  1.16000000000000E+01  0.00000000000000E+00
 N123     -4.00000000000000E+00  1.16000000000000E+01  2.00000002980232E+00
 N124     -2.00000000000000E+00  1.16000000000000E+01  0.00000000000000E+00
 N125     -4.00000000000000E+00  1.16000000000000E+01  1.00000001490116E+00
 N126     -3.00000000000000E+00  1.16000000000000E+01  0.00000000000000E+00
 N127     -4.00000000000000E+00  1.16000000000000E+01  0.00000000000000E+00
 N128      2.00000000000000E+00  4.60000000000000E+00  5.00000000000000E+00
 N129      2.00000000000000E+00  1.06000000000000E+01  0.00000000000000E+00
 N130      2.00000000000000E+00  4.60000000000000E+00  4.00000005960465E+00
 N131      2.00000000000000E+00  9.60000000000000E+00  0.00000000000000E+00
 N132      2.00000000000000E+00  4.60000000000000E+00  3.00000004470348E+00
 N133      2.00000000000000E+00  8.60000000000000E+00  0.00000000000000E+00
 N134      2.00000000000000E+00  4.60000000000000E+00  2.00000002980232E+00
 N135      2.00000000000000E+00  7.60000000000000E+00  0.00000000000000E+00
 N136      2.00000000000000E+00  4.60000000000000E+00  1.00000001490116E+00
 N137      2.00000000000000E+00  6.60000000000000E+00  0.00000000000000E+00
 N138      2.00000000000000E+00  4.60000000000000E+00  0.00000000000000E+00
 N139      2.00000000000000E+00  5.60000000000000E+00  0.00000000000000E+00
 N140     -4.00000000000000E+00  1.06000000000000E+01  5.00000000000000E+00
 N141      1.00000000000000E+00  1.06000000000000E+01  0.00000000000000E+00
 N142     -4.00000000000000E+00  1.06000000000000E+01  4.00000005960465E+00
 N143      0.00000000000000E+00  1.06000000000000E+01  0.00000000000000E+00
 N144     -4.00000000000000E+00  1.06000000000000E+01  3.00000004470348E+00
 N145     -1.00000000000000E+00  1.06000000000000E+01  0.00000000000000E+00
 N146     -4.00000000000000E+00  1.06000000000000E+01  2.00000002980232E+00
 N147     -2.00000000000000E+00  1.06000000000000E+01  0.00000000000000E+00
 N148     -4.00000000000000E+00  1.06000000000000E+01  1.00000001490116E+00
 N149     -3.00000000000000E+00  1.06000000000000E+01  0.00000000000000E+00
 N150     -4.00000000000000E+00  1.06000000000000E+01  0.00000000000000E+00
 N151     -4.00000000000000E+00  9.60000000000000E+00  5.00000000000000E+00
 N152     -4.00000000000000E+00  8.60000000000000E+00  5.00000000000000E+00
 N153      1.00000000000000E+00  4.60000000000000E+00  5.00000000000000E+00
 N154     -4.00000000000000E+00  7.60000000000000E+00  5.00000000000000E+00
 N155      0.00000000000000E+00  4.60000000000000E+00  5.00000000000000E+00
 N156     -4.00000000000000E+00  6.60000000000000E+00  5.00000000000000E+00
 N157     -1.00000000000000E+00  4.60000000000000E+00  5.00000000000000E+00
 N158     -4.00000000000000E+00  5.60000000000000E+00  5.00000000000000E+00
 N159     -2.00000000000000E+00  4.60000000000000E+00  5.00000000000000E+00
 N160     -4.00000000000000E+00  4.60000000000000E+00  5.00000000000000E+00
 N161     -3.00000000000000E+00  4.60000000000000E+00  5.00000000000000E+00
 N162      1.00000000000000E+00  4.60000000000000E+00  4.00000005960465E+00
 N163      1.00000000000000E+00  9.60000000000000E+00  0.00000000000000E+00
 N164      1.00000000000000E+00  4.60000000000000E+00  3.00000004470348E+00
 N165      1.00000000000000E+00  8.60000000000000E+00  0.00000000000000E+00
 N166      1.00000000000000E+00  4.60000000000000E+00  2.00000002980232E+00
 N167      1.00000000000000E+00  7.60000000000000E+00  0.00000000000000E+00
 N168      1.00000000000000E+00  4.60000000000000E+00  1.00000001490116E+00
 N169      1.00000000000000E+00  6.60000000000000E+00  0.00000000000000E+00
 N170      1.00000000000000E+00  4.60000000000000E+00  0.00000000000000E+00
 N171      1.00000000000000E+00  5.60000000000000E+00  0.00000000000000E+00
 N172     -4.00000000000000E+00  9.60000000000000E+00  4.00000005960465E+00
 N173      0.00000000000000E+00  9.60000000000000E+00  0.00000000000000E+00
 N174     -4.00000000000000E+00  9.60000000000000E+00  3.00000004470348E+00
 N175     -1.00000000000000E+00  9.60000000000000E+00  0.00000000000000E+00
 N176     -4.00000000000000E+00  9.60000000000000E+00  2.00000002980232E+00
 N177     -2.00000000000000E+00  9.60000000000000E+00  0.00000000000000E+00
 N178     -4.00000000000000E+00  9.60000000000000E+00  1.00000001490116E+00
 N179     -3.00000000000000E+00  9.60000000000000E+00  0.00000000000000E+00
 N180     -4.00000000000000E+00  9.60000000000000E+00  0.00000000000000E+00
 N181     -4.00000000000000E+00  8.60000000000000E+00  4.00000005960465E+00
 N182     -4.00000000000000E+00  7.60000000000000E+00  4.00000005960465E+00
 N183      0.00000000000000E+00  4.60000000000000E+00  4.00000005960465E+00
 N184     -4.00000000000000E+00  6.60000000000000E+00  4.00000005960465E+00
 N185     -1.00000000000000E+00  4.60000000000000E+00  4.00000005960465E+00
 N186     -4.00000000000000E+00  5.60000000000000E+00  4.00000005960465E+00
 N187     -2.00000000000000E+00  4.60000000000000E+00  4.00000005960465E+00
 N188     -4.00000000000000E+00  4.60000000000000E+00  4.00000005960465E+00
 N189     -3.00000000000000E+00  4.60000000000000E+00  4.00000005960465E+00
 N190      0.00000000000000E+00  4.60000000000000E+00  3.00000004470348E+00
 N191      0.00000000000000E+00  8.60000000000000E+00  0.00000000000000E+00
 N192      0.00000000000000E+00  4.60000000000000E+00  2.00000002980232E+00
 N193      0.00000000000000E+00  7.60000000000000E+00  0.00000000000000E+00
 N194      0.00000000000000E+00  4.60000000000000E+00  1.00000001490116E+00
 N195      0.00000000000000E+00  6.60000000000000E+00  0.00000000000000E+00
 N196      0.00000000000000E+00  4.60000000000000E+00  0.00000000000000E+00
 N197      0.00000000000000E+00  5.60000000000000E+00  0.00000000000000E+00
 N198     -4.00000000000000E+00  8.60000000000000E+00  3.00000004470348E+00
 N199     -1.00000000000000E+00  8.60000000000000E+00  0.00000000000000E+00
 N200     -4.00000000000000E+00  8.60000000000000E+00  2.00000002980232E+00
 N201     -2.00000000000000E+00  8.60000000000000E+00  0.00000000000000E+00
 N202     -4.00000000000000E+00  8.60000000000000E+00  1.00000001490116E+00
 N203     -3.00000000000000E+00  8.60000000000000E+00  0.00000000000000E+00
 N204     -4.00000000000000E+00  8.60000000000000E+00  0.00000000000000E+00
 N205     -4.00000000000000E+00  7.60000000000000E+00  3.00000004470348E+00
 N206     -4.00000000000000E+00  6.60000000000000E+00  3.00000004470348E+00
 N207     -1.00000000000000E+00  4.60000000000000E+00  3.00000004470348E+00
 N208     -4.00000000000000E+00  5.60000000000000E+00  3.00000004470348E+00
 N209     -2.00000000000000E+00  4.60000000000000E+00  3.00000004470348E+00
 N210     -4.00000000000000E+00  4.60000000000000E+00  3.00000004470348E+00
 N211     -3.00000000000000E+00  4.60000000000000E+00  3.00000004470348E+00
 N212     -1.00000000000000E+00  4.60000000000000E+00  2.00000002980232E+00
 N213     -1.00000000000000E+00  7.60000000000000E+00  0.00000000000000E+00
 N214     -1.00000000000000E+00  4.60000000000000E+00  1.00000001490116E+00
 N215     -1.00000000000000E+00  6.60000000000000E+00  0.00000000000000E+00
 N216     -1.00000000000000E+00  4.60000000000000E+00  0.00000000000000E+00
 N217     -1.00000000000000E+00  5.60000000000000E+00  0.00000000000000E+00
 N218     -4.00000000000000E+00  7.60000000000000E+00  2.00000002980232E+00
 N219     -2.00000000000000E+00  7.60000000000000E+00  0.00000000000000E+00
 N220     -4.00000000000000E+00  7.60000000000000E+00  1.00000001490116E+00
 N221     -3.00000000000000E+00  7.60000000000000E+00  0.00000000000000E+00
 N222     -4.00000000000000E+00  7.60000000000000E+00  0.00000000000000E+00
 N223     -4.00000000000000E+00  6.60000000000000E+00  2.00000002980232E+00
 N224     -4.00000000000000E+00  5.60000000000000E+00  2.00000002980232E+00
 N225     -2.00000000000000E+00  4.60000000000000E+00  2.00000002980232E+00
 N226     -4.00000000000000E+00  4.60000000000000E+00  2.00000002980232E+00
 N227     -3.00000000000000E+00  4.60000000000000E+00  2.00000002980232E+00
 N228     -2.00000000000000E+00  4.60000000000000E+00  1.00000001490116E+00
 N229     -2.00000000000000E+00  6.60000000000000E+00  0.00000000000000E+00
 N230     -2.00000000000000E+00  4.60000000000000E+00  0.00000000000000E+00
 N231     -2.00000000000000E+00  5.60000000000000E+00  0.00000000000000E+00
 N232     -4.00000000000000E+00  6.60000000000000E+00  1.00000001490116E+00
 N233     -3.00000000000000E+00  6.60000000000000E+00  0.00000000000000E+00
 N234     -4.00000000000000E+00  6.60000000000000E+00  0.00000000000000E+00
 N235     -4.00000000000000E+00  5.60000000000000E+00  1.00000001490116E+00
 N236     -4.00000000000000E+00  4.60000000000000E+00  1.00000001490116E+00
 N237     -3.00000000000000E+00  4.60000000000000E+00  1.00000001490116E+00
 N238     -3.00000000000000E+00  4.60000000000000E+00  0.00000000000000E+00
 N239     -3.00000000000000E+00  5.60000000000000E+00  0.00000000000000E+00
 N240     -4.00000000000000E+00  5.60000000000000E+00  0.00000000000000E+00
 N241     -4.00000000000000E+00  4.60000000000000E+00  0.00000000000000E+00
 N242      4.00000000000000E+00  1.00000000000000E+00  5.00000000000000E+00
 N243      4.00000000000000E+00  2.00000000000000E+00  5.00000000000000E+00
 N244      4.00000000000000E+00  3.00000000000000E+00  5.00000000000000E+00
 N245      4.00000000000000E+00  4.00000000000000E+00  5.00000000000000E+00
 N246      3.00000000000000E+00  4.00000000000000E+00  5.00000000000000E+00
 N247      2.00000000000000E+00  4.00000000000000E+00  5.00000000000000E+00
 N248      1.00000000000000E+00  4.00000000000000E+00  5.00000000000000E+00
 N249      4.00000000000000E+00  0.00000000000000E+00  5.00000000000000E+00
 N250      4.00000000000000E+00  0.00000000000000E+00  4.00000005960465E+00
 N251      4.00000000000000E+00  1.00000000000000E+00  4.00000005960465E+00
 N252      4.00000000000000E+00  2.00000000000000E+00  4.00000005960465E+00
 N253      4.00000000000000E+00  3.00000000000000E+00  4.00000005960465E+00
 N254      4.00000000000000E+00  4.00000000000000E+00  4.00000005960465E+00
 N255      3.00000000000000E+00  4.00000000000000E+00  4.00000005960465E+00
 N256      2.00000000000000E+00  4.00000000000000E+00  4.00000005960465E+00
 N257      0.00000000000000E+00  4.00000000000000E+00  5.00000000000000E+00
 N258      1.00000000000000E+00  4.00000000000000E+00  4.00000005960465E+00
 N259      0.00000000000000E+00  4.00000000000000E+00  4.00000005960465E+00
 N260      4.00000000000000E+00 -1.00000000000000E+00  5.00000000000000E+00
 N261      4.00000000000000E+00 -1.00000000000000E+00  4.00000005960465E+00
 N262      4.00000000000000E+00  1.00000000000000E+00  3.00000004470348E+00
 N263      4.00000000000000E+00  0.00000000000000E+00  3.00000004470348E+00
 N264      4.00000000000000E+00 -1.00000000000000E+00  3.00000004470348E+00
 N265      4.00000000000000E+00  2.00000000000000E+00  3.00000004470348E+00
 N266      4.00000000000000E+00  3.00000000000000E+00  3.00000004470348E+00
 N267      4.00000000000000E+00  4.00000000000000E+00  3.00000004470348E+00
 N268      3.00000000000000E+00  4.00000000000000E+00  3.00000004470348E+00
 N269      2.00000000000000E+00  4.00000000000000E+00  3.00000004470348E+00
 N270     -1.00000000000000E+00  4.00000000000000E+00  5.00000000000000E+00
 N271      1.00000000000000E+00  4.00000000000000E+00  3.00000004470348E+00
 N272     -1.00000000000000E+00  4.00000000000000E+00  4.00000005960465E+00
 N273      0.00000000000000E+00  4.00000000000000E+00  3.00000004470348E+00
 N274     -1.00000000000000E+00  4.00000000000000E+00  3.00000004470348E+00
 N275      4.00000000000000E+00 -2.00000000000000E+00  5.00000000000000E+00
 N276      4.00000000000000E+00  2.00000000000000E+00  2.00000002980232E+00
 N277      4.00000000000000E+00 -2.00000000000000E+00  4.00000005960465E+00
 N278      4.00000000000000E+00  1.00000000000000E+00  2.00000002980232E+00
 N279      4.00000000000000E+00 -2.00000000000000E+00  3.00000004470348E+00
 N280      4.00000000000000E+00  0.00000000000000E+00  2.00000002980232E+00
 N281      4.00000000000000E+00 -1.00000000000000E+00  2.00000002980232E+00
 N282      4.00000000000000E+00 -2.00000000000000E+00  2.00000002980232E+00
 N283      4.00000000000000E+00  3.00000000000000E+00  2.00000002980232E+00
 N284      4.00000000000000E+00  4.00000000000000E+00  2.00000002980232E+00
 N285      3.00000000000000E+00  4.00000000000000E+00  2.00000002980232E+00
 N286      2.00000000000000E+00  4.00000000000000E+00  2.00000002980232E+00
 N287     -2.00000000000000E+00  4.00000000000000E+00  5.00000000000000E+00
 N288      1.00000000000000E+00  4.00000000000000E+00  2.00000002980232E+00
 N289     -2.00000000000000E+00  4.00000000000000E+00  4.00000005960465E+00
 N290      0.00000000000000E+00  4.00000000000000E+00  2.00000002980232E+00
 N291     -2.00000000000000E+00  4.00000000000000E+00  3.00000004470348E+00
 N292     -1.00000000000000E+00  4.00000000000000E+00  2.00000002980232E+00
 N293     -2.00000000000000E+00  4.00000000000000E+00  2.00000002980232E+00
 N294      4.00000000000000E+00  3.00000000000000E+00  1.00000001490116E+00
 N295      4.00000000000000E+00 -3.00000000000000E+00  5.00000000000000E+00
 N296      4.00000000000000E+00  2.00000000000000E+00  1.00000001490116E+00
 N297      4.00000000000000E+00 -3.00000000000000E+00  4.00000005960465E+00
 N298      4.00000000000000E+00  1.00000000000000E+00  1.00000001490116E+00
 N299      4.00000000000000E+00 -3.00000000000000E+00  3.00000004470348E+00
 N300      4.00000000000000E+00  0.00000000000000E+00  1.00000001490116E+00
 N301      4.00000000000000E+00 -3.00000000000000E+00  2.00000002980232E+00
 N302      4.00000000000000E+00 -1.00000000000000E+00  1.00000001490116E+00
 N303      4.00000000000000E+00 -2.00000000000000E+00  1.00000001490116E+00
 N304      4.00000000000000E+00 -3.00000000000000E+00  1.00000001490116E+00
 N305      4.00000000000000E+00  4.00000000000000E+00  1.00000001490116E+00
 N306      3.00000000000000E+00  4.00000000000000E+00  1.00000001490116E+00
 N307      2.00000000000000E+00  4.00000000000000E+00  1.00000001490116E+00
 N308     -3.00000000000000E+00  4.00000000000000E+00  5.00000000000000E+00
 N309      1.00000000000000E+00  4.00000000000000E+00  1.00000001490116E+00
 N310     -3.00000000000000E+00  4.00000000000000E+00  4.00000005960465E+00
 N311      0.00000000000000E+00  4.00000000000000E+00  1.00000001490116E+00
 N312     -3.00000000000000E+00  4.00000000000000E+00  3.00000004470348E+00
 N313     -1.00000000000000E+00  4.00000000000000E+00  1.00000001490116E+00
 N314     -3.00000000000000E+00  4.00000000000000E+00  2.00000002980232E+00
 N315     -2.00000000000000E+00  4.00000000000000E+00  1.00000001490116E+00
 N316     -3.00000000000000E+00  4.00000000000000E+00  1.00000001490116E+00
 N317      4.00000000000000E+00  4.00000000000000E+00  0.00000000000000E+00
 N318      4.00000000000000E+00  3.00000000000000E+00  0.00000000000000E+00
 N319      4.00000000000000E+00 -4.00000000000000E+00  5.00000000000000E+00
 N320      4.00000000000000E+00  2.00000000000000E+00  0.00000000000000E+00
 N321      4.00000000000000E+00 -4.00000000000000E+00  4.00000005960465E+00
 N322      4.00000000000000E+00  1.00000000000000E+00  0.00000000000000E+00
 N323      4.00000000000000E+00 -4.00000000000000E+00  3.00000004470348E+00
 N324      4.00000000000000E+00  0.00000000000000E+00  0.00000000000000E+00
 N325      4.00000000000000E+00 -4.00000000000000E+00  2.00000002980232E+00
 N326      4.00000000000000E+00 -1.00000000000000E+00  0.00000000000000E+00
 N327      4.00000000000000E+00 -4.00000000000000E+00  1.00000001490116E+00
 N328      4.00000000000000E+00 -2.00000000000000E+00  0.00000000000000E+00
 N329      4.00000000000000E+00 -4.00000000000000E+00  0.00000000000000E+00
 N330      4.00000000000000E+00 -3.00000000000000E+00  0.00000000000000E+00
 N331      3.00000000000000E+00  4.00000000000000E+00  0.00000000000000E+00
 N332      2.00000000000000E+00  4.00000000000000E+00  0.00000000000000E+00
 N333     -4.00000000000000E+00  4.00000000000000E+00  5.00000000000000E+00
 N334      1.00000000000000E+00  4.00000000000000E+00  0.00000000000000E+00
 N335     -4.00000000000000E+00  4.00000000000000E+00  4.00000005960465E+00
 N336      0.00000000000000E+00  4.00000000000000E+00  0.00000000000000E+00
 N337     -4.00000000000000E+00  4.00000000000000E+00  3.00000004470348E+00
 N338     -1.00000000000000E+00  4.00000000000000E+00  0.00000000000000E+00
 N339     -4.00000000000000E+00  4.00000000000000E+00  2.00000002980232E+00
 N340     -2.00000000000000E+00  4.00000000000000E+00  0.00000000000000E+00
 N341     -4.00000000000000E+00  4.00000000000000E+00  1.00000001490116E+00
 N342     -3.00000000000000E+00  4.00000000000000E+00  0.00000000000000E+00
 N343     -4.00000000000000E+00  4.00000000000000E+00  0.00000000000000E+00
 N344      3.00000000000000E+00  3.00000000000000E+00  0.00000000000000E+00
 N345      3.00000000000000E+00 -4.00000000000000E+00  5.00000000000000E+00
 N346      3.00000000000000E+00  2.00000000000000E+00  0.00000000000000E+00
 N347      3.00000000000000E+00 -4.00000000000000E+00  4.00000005960465E+00
 N348      3.00000000000000E+00  1.00000000000000E+00  0.00000000000000E+00
 N349      3.00000000000000E+00 -4.00000000000000E+00  3.00000004470348E+00
 N350      3.00000000000000E+00  0.00000000000000E+00  0.00000000000000E+00
 N351      3.00000000000000E+00 -4.00000000000000E+00  2.00000002980232E+00
 N352      3.00000000000000E+00 -1.00000000000000E+00  0.00000000000000E+00
 N353      3.00000000000000E+00 -4.00000000000000E+00  1.00000001490116E+00
 N354      3.00000000000000E+00 -2.00000000000000E+00  0.00000000000000E+00
 N355      3.00000000000000E+00 -4.00000000000000E+00  0.00000000000000E+00
 N356      3.00000000000000E+00 -3.00000000000000E+00  0.00000000000000E+00
 N357      2.00000000000000E+00  3.00000000000000E+00  0.00000000000000E+00
 N358     -4.00000000000000E+00  3.00000000000000E+00  5.00000000000000E+00
 N359      1.00000000000000E+00  3.00000000000000E+00  0.00000000000000E+00
 N360     -4.00000000000000E+00  3.00000000000000E+00  4.00000005960465E+00
 N361      0.00000000000000E+00  3.00000000000000E+00  0.00000000000000E+00
 N362     -4.00000000000000E+00  3.00000000000000E+00  3.00000004470348E+00
 N363     -1.00000000000000E+00  3.00000000000000E+00  0.00000000000000E+00
 N364     -4.00000000000000E+00  3.00000000000000E+00  2.00000002980232E+00
 N365     -2.00000000000000E+00  3.00000000000000E+00  0.00000000000000E+00
 N366     -4.00000000000000E+00  3.00000000000000E+00  1.00000001490116E+00
 N367     -3.00000000000000E+00  3.00000000000000E+00  0.00000000000000E+00
 N368     -4.00000000000000E+00  3.00000000000000E+00  0.00000000000000E+00
 N369      2.00000000000000E+00 -4.00000000000000E+00  5.00000000000000E+00
 N370      2.00000000000000E+00  2.00000000000000E+00  0.00000000000000E+00
 N371      2.00000000000000E+00 -4.00000000000000E+00  4.00000005960465E+00
 N372      2.00000000000000E+00  1.00000000000000E+00  0.00000000000000E+00
 N373      2.00000000000000E+00 -4.00000000000000E+00  3.00000004470348E+00
 N374      2.00000000000000E+00  0.00000000000000E+00  0.00000000000000E+00
 N375      2.00000000000000E+00 -4.00000000000000E+00  2.00000002980232E+00
 N376      2.00000000000000E+00 -1.00000000000000E+00  0.00000000000000E+00
 N377      2.00000000000000E+00 -4.00000000000000E+00  1.00000001490116E+00
 N378      2.00000000000000E+00 -2.00000000000000E+00  0.00000000000000E+00
 N379      2.00000000000000E+00 -4.00000000000000E+00  0.00000000000000E+00
 N380      2.00000000000000E+00 -3.00000000000000E+00  0.00000000000000E+00
 N381     -4.00000000000000E+00  2.00000000000000E+00  5.00000000000000E+00
 N382      1.00000000000000E+00  2.00000000000000E+00  0.00000000000000E+00
 N383     -4.00000000000000E+00  2.00000000000000E+00  4.00000005960465E+00
 N384      0.00000000000000E+00  2.00000000000000E+00  0.00000000000000E+00
 N385     -4.00000000000000E+00  2.00000000000000E+00  3.00000004470348E+00
 N386     -1.00000000000000E+00  2.00000000000000E+00  0.00000000000000E+00
 N387     -4.00000000000000E+00  2.00000000000000E+00  2.00000002980232E+00
 N388     -2.00000000000000E+00  2.00000000000000E+00  0.00000000000000E+00
 N389     -4.00000000000000E+00  2.00000000000000E+00  1.00000001490116E+00
 N390     -3.00000000000000E+00  2.00000000000000E+00  0.00000000000000E+00
 N391     -4.00000000000000E+00  2.00000000000000E+00  0.00000000000000E+00
 N392     -4.00000000000000E+00  1.00000000000000E+00  5.00000000000000E+00
 N393     -4.00000000000000E+00  0.00000000000000E+00  5.00000000000000E+00
 N394      1.00000000000000E+00 -4.00000000000000E+00  5.00000000000000E+00
 N395     -4.00000000000000E+00 -1.00000000000000E+00  5.00000000000000E+00
 N396      0.00000000000000E+00 -4.00000000000000E+00  5.00000000000000E+00
 N397     -4.00000000000000E+00 -2.00000000000000E+00  5.00000000000000E+00
 N398     -1.00000000000000E+00 -4.00000000000000E+00  5.00000000000000E+00
 N399     -4.00000000000000E+00 -3.00000000000000E+00  5.00000000000000E+00
 N400     -2.00000000000000E+00 -4.00000000000000E+00  5.00000000000000E+00
 N401     -4.00000000000000E+00 -4.00000000000000E+00  5.00000000000000E+00
 N402     -3.00000000000000E+00 -4.00000000000000E+00  5.00000000000000E+00
 N403      1.00000000000000E+00 -4.00000000000000E+00  4.00000005960465E+00
 N404      1.00000000000000E+00  1.00000000000000E+00  0.00000000000000E+00
 N405      1.00000000000000E+00 -4.00000000000000E+00  3.00000004470348E+00
 N406      1.00000000000000E+00  0.00000000000000E+00  0.00000000000000E+00
 N407      1.00000000000000E+00 -4.00000000000000E+00  2.00000002980232E+00
 N408      1.00000000000000E+00 -1.00000000000000E+00  0.00000000000000E+00
 N409      1.00000000000000E+00 -4.00000000000000E+00  1.00000001490116E+00
 N410      1.00000000000000E+00 -2.00000000000000E+00  0.00000000000000E+00
 N411      1.00000000000000E+00 -4.00000000000000E+00  0.00000000000000E+00
 N412      1.00000000000000E+00 -3.00000000000000E+00  0.00000000000000E+00
 N413     -4.00000000000000E+00  1.00000000000000E+00  4.00000005960465E+00
 N414      0.00000000000000E+00  1.00000000000000E+00  0.00000000000000E+00
 N415     -4.00000000000000E+00  1.00000000000000E+00  3.00000004470348E+00
 N416     -1.00000000000000E+00  1.00000000000000E+00  0.00000000000000E+00
 N417     -4.00000000000000E+00  1.00000000000000E+00  2.00000002980232E+00
 N418     -2.00000000000000E+00  1.00000000000000E+00  0.00000000000000E+00
 N419     -4.00000000000000E+00  1.00000000000000E+00  1.00000001490116E+00
 N420     -3.00000000000000E+00  1.00000000000000E+00  0.00000000000000E+00
 N421     -4.00000000000000E+00  1.00000000000000E+00  0.00000000000000E+00
 N422     -4.00000000000000E+00  0.00000000000000E+00  4.00000005960465E+00
 N423     -4.00000000000000E+00 -1.00000000000000E+00  4.00000005960465E+00
 N424      0.00000000000000E+00 -4.00000000000000E+00  4.00000005960465E+00
 N425     -4.00000000000000E+00 -2.00000000000000E+00  4.00000005960465E+00
 N426     -1.00000000000000E+00 -4.00000000000000E+00  4.00000005960465E+00
 N427     -4.00000000000000E+00 -3.00000000000000E+00  4.00000005960465E+00
 N428     -2.00000000000000E+00 -4.00000000000000E+00  4.00000005960465E+00
 N429     -4.00000000000000E+00 -4.00000000000000E+00  4.00000005960465E+00
 N430     -3.00000000000000E+00 -4.00000000000000E+00  4.00000005960465E+00
 N431      0.00000000000000E+00 -4.00000000000000E+00  3.00000004470348E+00
 N432      0.00000000000000E+00  0.00000000000000E+00  0.00000000000000E+00
 N433      0.00000000000000E+00 -4.00000000000000E+00  2.00000002980232E+00
 N434      0.00000000000000E+00 -1.00000000000000E+00  0.00000000000000E+00
 N435      0.00000000000000E+00 -4.00000000000000E+00  1.00000001490116E+00
 N436      0.00000000000000E+00 -2.00000000000000E+00  0.00000000000000E+00
 N437      0.00000000000000E+00 -4.00000000000000E+00  0.00000000000000E+00
 N438      0.00000000000000E+00 -3.00000000000000E+00  0.00000000000000E+00
 N439     -4.00000000000000E+00  0.00000000000000E+00  3.00000004470348E+00
 N440     -1.00000000000000E+00  0.00000000000000E+00  0.00000000000000E+00
 N441     -4.00000000000000E+00  0.00000000000000E+00  2.00000002980232E+00
 N442     -2.00000000000000E+00  0.00000000000000E+00  0.00000000000000E+00
 N443     -4.00000000000000E+00  0.00000000000000E+00  1.00000001490116E+00
 N444     -3.00000000000000E+00  0.00000000000000E+00  0.00000000000000E+00
 N445     -4.00000000000000E+00  0.00000000000000E+00  0.00000000000000E+00
 N446     -4.00000000000000E+00 -1.00000000000000E+00  3.00000004470348E+00
 N447     -4.00000000000000E+00 -2.00000000000000E+00  3.00000004470348E+00
 N448     -1.00000000000000E+00 -4.00000000000000E+00  3.00000004470348E+00
 N449     -4.00000000000000E+00 -3.00000000000000E+00  3.00000004470348E+00
 N450     -2.00000000000000E+00 -4.00000000000000E+00  3.00000004470348E+00
 N451     -4.00000000000000E+00 -4.00000000000000E+00  3.00000004470348E+00
 N452     -3.00000000000000E+00 -4.00000000000000E+00  3.00000004470348E+00
 N453     -1.00000000000000E+00 -4.00000000000000E+00  2.00000002980232E+00
 N454     -1.00000000000000E+00 -1.00000000000000E+00  0.00000000000000E+00
 N455     -1.00000000000000E+00 -4.00000000000000E+00  1.00000001490116E+00
 N456     -1.00000000000000E+00 -2.00000000000000E+00  0.00000000000000E+00
 N457     -1.00000000000000E+00 -4.00000000000000E+00  0.00000000000000E+00
 N458     -1.00000000000000E+00 -3.00000000000000E+00  0.00000000000000E+00
 N459     -4.00000000000000E+00 -1.00000000000000E+00  2.00000002980232E+00
 N460     -2.00000000000000E+00 -1.00000000000000E+00  0.00000000000000E+00
 N461     -4.00000000000000E+00 -1.00000000000000E+00  1.00000001490116E+00
 N462     -3.00000000000000E+00 -1.00000000000000E+00  0.00000000000000E+00
 N463     -4.00000000000000E+00 -1.00000000000000E+00  0.00000000000000E+00
 N464     -4.00000000000000E+00 -2.00000000000000E+00  2.00000002980232E+00
 N465     -4.00000000000000E+00 -3.00000000000000E+00  2.00000002980232E+00
 N466     -2.00000000000000E+00 -4.00000000000000E+00  2.00000002980232E+00
 N467     -4.00000000000000E+00 -4.00000000000000E+00  2.00000002980232E+00
 N468     -3.00000000000000E+00 -4.00000000000000E+00  2.00000002980232E+00
 N469     -2.00000000000000E+00 -4.00000000000000E+00  1.00000001490116E+00
 N470     -2.00000000000000E+00 -2.00000000000000E+00  0.00000000000000E+00
 N471     -2.00000000000000E+00 -4.00000000000000E+00  0.00000000000000E+00
 N472     -2.00000000000000E+00 -3.00000000000000E+00  0.00000000000000E+00
 N473     -4.00000000000000E+00 -2.00000000000000E+00  1.00000001490116E+00
 N474     -3.00000000000000E+00 -2.00000000000000E+00  0.00000000000000E+00
 N475     -4.00000000000000E+00 -2.00000000000000E+00  0.00000000000000E+00
 N476     -4.00000000000000E+00 -3.00000000000000E+00  1.00000001490116E+00
 N477     -4.00000000000000E+00 -4.00000000000000E+00  1.00000001490116E+00
 N478     -3.00000000000000E+00 -4.00000000000000E+00  1.00000001490116E+00
 N479     -3.00000000000000E+00 -4.00000000000000E+00  0.00000000000000E+00
 N480     -3.00000000000000E+00 -3.00000000000000E+00  0.00000000000000E+00
 N481     -4.00000000000000E+00 -3.00000000000000E+00  0.00000000000000E+00
 N482     -4.00000000000000E+00 -4.00000000000000E+00  0.00000000000000E+00
 FINSF
 %
 SEG2    
 M1097    N343     N368    
 M1098    N368     N391    
 M1099    N391     N421    
 M1100    N421     N445    
 M1101    N445     N463    
 M1102    N463     N475    
 M1103    N475     N481    
 M1104    N481     N482    
 M1163    N317     N331    
 M1164    N331     N332    
 M1165    N332     N334    
 M1166    N334     N336    
 M1167    N336     N338    
 M1168    N338     N340    
 M1169    N340     N342    
 M1170    N342     N343    
 M1229    N329     N330    
 M1230    N330     N328    
 M1231    N328     N326    
 M1232    N326     N324    
 M1233    N324     N322    
 M1234    N322     N320    
 M1235    N320     N318    
 M1236    N318     N317    
 M1295    N482     N479    
 M1296    N479     N471    
 M1297    N471     N457    
 M1298    N457     N437    
 M1299    N437     N411    
 M1300    N411     N379    
 M1301    N379     N355    
 M1302    N355     N329    
 FINSF
 %
 QUAD4   
 M1       N482     N481     N480     N479    
 M2       N479     N480     N472     N471    
 M3       N471     N472     N458     N457    
 M4       N457     N458     N438     N437    
 M5       N437     N438     N412     N411    
 M6       N411     N412     N380     N379    
 M7       N379     N380     N356     N355    
 M8       N355     N356     N330     N329    
 M9       N481     N475     N474     N480    
 M10      N480     N474     N470     N472    
 M11      N472     N470     N456     N458    
 M12      N458     N456     N436     N438    
 M13      N438     N436     N410     N412    
 M14      N412     N410     N378     N380    
 M15      N380     N378     N354     N356    
 M16      N356     N354     N328     N330    
 M17      N475     N463     N462     N474    
 M18      N474     N462     N460     N470    
 M19      N470     N460     N454     N456    
 M20      N456     N454     N434     N436    
 M21      N436     N434     N408     N410    
 M22      N410     N408     N376     N378    
 M23      N378     N376     N352     N354    
 M24      N354     N352     N326     N328    
 M25      N463     N445     N444     N462    
 M26      N462     N444     N442     N460    
 M27      N460     N442     N440     N454    
 M28      N454     N440     N432     N434    
 M29      N434     N432     N406     N408    
 M30      N408     N406     N374     N376    
 M31      N376     N374     N350     N352    
 M32      N352     N350     N324     N326    
 M33      N445     N421     N420     N444    
 M34      N444     N420     N418     N442    
 M35      N442     N418     N416     N440    
 M36      N440     N416     N414     N432    
 M37      N432     N414     N404     N406    
 M38      N406     N404     N372     N374    
 M39      N374     N372     N348     N350    
 M40      N350     N348     N322     N324    
 M41      N421     N391     N390     N420    
 M42      N420     N390     N388     N418    
 M43      N418     N388     N386     N416    
 M44      N416     N386     N384     N414    
 M45      N414     N384     N382     N404    
 M46      N404     N382     N370     N372    
 M47      N372     N370     N346     N348    
 M48      N348     N346     N320     N322    
 M49      N391     N368     N367     N390    
 M50      N390     N367     N365     N388    
 M51      N388     N365     N363     N386    
 M52      N386     N363     N361     N384    
 M53      N384     N361     N359     N382    
 M54      N382     N359     N357     N370    
 M55      N370     N357     N344     N346    
 M56      N346     N344     N318     N320    
 M57      N368     N343     N342     N367    
 M58      N367     N342     N340     N365    
 M59      N365     N340     N338     N363    
 M60      N363     N338     N336     N361    
 M61      N361     N336     N334     N359    
 M62      N359     N334     N332     N357    
 M63      N357     N332     N331     N344    
 M64      N344     N331     N317     N318    
 M65      N482     N479     N478     N477    
 M66      N479     N471     N469     N478    
 M67      N471     N457     N455     N469    
 M68      N457     N437     N435     N455    
 M69      N437     N411     N409     N435    
 M70      N411     N379     N377     N409    
 M71      N379     N355     N353     N377    
 M72      N355     N329     N327     N353    
 M73      N477     N478     N468     N467    
 M74      N478     N469     N466     N468    
 M75      N469     N455     N453     N466    
 M76      N455     N435     N433     N453    
 M77      N435     N409     N407     N433    
 M78      N409     N377     N375     N407    
 M79      N377     N353     N351     N375    
 M80      N353     N327     N325     N351    
 M81      N467     N468     N452     N451    
 M82      N468     N466     N450     N452    
 M83      N466     N453     N448     N450    
 M84      N453     N433     N431     N448    
 M85      N433     N407     N405     N431    
 M86      N407     N375     N373     N405    
 M87      N375     N351     N349     N373    
 M88      N351     N325     N323     N349    
 M89      N451     N452     N430     N429    
 M90      N452     N450     N428     N430    
 M91      N450     N448     N426     N428    
 M92      N448     N431     N424     N426    
 M93      N431     N405     N403     N424    
 M94      N405     N373     N371     N403    
 M95      N373     N349     N347     N371    
 M96      N349     N323     N321     N347    
 M97      N429     N430     N402     N401    
 M98      N430     N428     N400     N402    
 M99      N428     N426     N398     N400    
 M100     N426     N424     N396     N398    
 M101     N424     N403     N394     N396    
 M102     N403     N371     N369     N394    
 M103     N371     N347     N345     N369    
 M104     N347     N321     N319     N345    
 M105     N329     N330     N304     N327    
 M106     N330     N328     N303     N304    
 M107     N328     N326     N302     N303    
 M108     N326     N324     N300     N302    
 M109     N324     N322     N298     N300    
 M110     N322     N320     N296     N298    
 M111     N320     N318     N294     N296    
 M112     N318     N317     N305     N294    
 M113     N327     N304     N301     N325    
 M114     N304     N303     N282     N301    
 M115     N303     N302     N281     N282    
 M116     N302     N300     N280     N281    
 M117     N300     N298     N278     N280    
 M118     N298     N296     N276     N278    
 M119     N296     N294     N283     N276    
 M120     N294     N305     N284     N283    
 M121     N325     N301     N299     N323    
 M122     N301     N282     N279     N299    
 M123     N282     N281     N264     N279    
 M124     N281     N280     N263     N264    
 M125     N280     N278     N262     N263    
 M126     N278     N276     N265     N262    
 M127     N276     N283     N266     N265    
 M128     N283     N284     N267     N266    
 M129     N323     N299     N297     N321    
 M130     N299     N279     N277     N297    
 M131     N279     N264     N261     N277    
 M132     N264     N263     N250     N261    
 M133     N263     N262     N251     N250    
 M134     N262     N265     N252     N251    
 M135     N265     N266     N253     N252    
 M136     N266     N267     N254     N253    
 M137     N321     N297     N295     N319    
 M138     N297     N277     N275     N295    
 M139     N277     N261     N260     N275    
 M140     N261     N250     N249     N260    
 M141     N250     N251     N242     N249    
 M142     N251     N252     N243     N242    
 M143     N252     N253     N244     N243    
 M144     N253     N254     N245     N244    
 M145     N317     N331     N306     N305    
 M146     N331     N332     N307     N306    
 M147     N332     N334     N309     N307    
 M148     N334     N336     N311     N309    
 M149     N336     N338     N313     N311    
 M150     N338     N340     N315     N313    
 M151     N340     N342     N316     N315    
 M152     N342     N343     N341     N316    
 M153     N305     N306     N285     N284    
 M154     N306     N307     N286     N285    
 M155     N307     N309     N288     N286    
 M156     N309     N311     N290     N288    
 M157     N311     N313     N292     N290    
 M158     N313     N315     N293     N292    
 M159     N315     N316     N314     N293    
 M160     N316     N341     N339     N314    
 M161     N284     N285     N268     N267    
 M162     N285     N286     N269     N268    
 M163     N286     N288     N271     N269    
 M164     N288     N290     N273     N271    
 M165     N290     N292     N274     N273    
 M166     N292     N293     N291     N274    
 M167     N293     N314     N312     N291    
 M168     N314     N339     N337     N312    
 M169     N267     N268     N255     N254    
 M170     N268     N269     N256     N255    
 M171     N269     N271     N258     N256    
 M172     N271     N273     N259     N258    
 M173     N273     N274     N272     N259    
 M174     N274     N291     N289     N272    
 M175     N291     N312     N310     N289    
 M176     N312     N337     N335     N310    
 M177     N254     N255     N246     N245    
 M178     N255     N256     N247     N246    
 M179     N256     N258     N248     N247    
 M180     N258     N259     N257     N248    
 M181     N259     N272     N270     N257    
 M182     N272     N289     N287     N270    
 M183     N289     N310     N308     N287    
 M184     N310     N335     N333     N308    
 M185     N343     N368     N366     N341    
 M186     N368     N391     N389     N366    
 M187     N391     N421     N419     N389    
 M188     N421     N445     N443     N419    
 M189     N445     N463     N461     N443    
 M190     N463     N475     N473     N461    
 M191     N475     N481     N476     N473    
 M192     N481     N482     N477     N476    
 M193     N341     N366     N364     N339    
 M194     N366     N389     N387     N364    
 M195     N389     N419     N417     N387    
 M196     N419     N443     N441     N417    
 M197     N443     N461     N459     N441    
 M198     N461     N473     N464     N459    
 M199     N473     N476     N465     N464    
 M200     N476     N477     N467     N465    
 M201     N339     N364     N362     N337    
 M202     N364     N387     N385     N362    
 M203     N387     N417     N415     N385    
 M204     N417     N441     N439     N415    
 M205     N441     N459     N446     N439    
 M206     N459     N464     N447     N446    
 M207     N464     N465     N449     N447    
 M208     N465     N467     N451     N449    
 M209     N337     N362     N360     N335    
 M210     N362     N385     N383     N360    
 M211     N385     N415     N413     N383    
 M212     N415     N439     N422     N413    
 M213     N439     N446     N423     N422    
 M214     N446     N447     N425     N423    
 M215     N447     N449     N427     N425    
 M216     N449     N451     N429     N427    
 M217     N335     N360     N358     N333    
 M218     N360     N383     N381     N358    
 M219     N383     N413     N392     N381    
 M220     N413     N422     N393     N392    
 M221     N422     N423     N395     N393    
 M222     N423     N425     N397     N395    
 M223     N425     N427     N399     N397    
 M224     N427     N429     N401     N399    
 M225     N241     N240     N239     N238    
 M226     N238     N239     N231     N230    
 M227     N230     N231     N217     N216    
 M228     N216     N217     N197     N196    
 M229     N196     N197     N171     N170    
 M230     N170     N171     N139     N138    
 M231     N138     N139     N115     N114    
 M232     N114     N115     N89      N88     
 M233     N240     N234     N233     N239    
 M234     N239     N233     N229     N231    
 M235     N231     N229     N215     N217    
 M236     N217     N215     N195     N197    
 M237     N197     N195     N169     N171    
 M238     N171     N169     N137     N139    
 M239     N139     N137     N113     N115    
 M240     N115     N113     N87      N89     
 M241     N234     N222     N221     N233    
 M242     N233     N221     N219     N229    
 M243     N229     N219     N213     N215    
 M244     N215     N213     N193     N195    
 M245     N195     N193     N167     N169    
 M246     N169     N167     N135     N137    
 M247     N137     N135     N111     N113    
 M248     N113     N111     N85      N87     
 M249     N222     N204     N203     N221    
 M250     N221     N203     N201     N219    
 M251     N219     N201     N199     N213    
 M252     N213     N199     N191     N193    
 M253     N193     N191     N165     N167    
 M254     N167     N165     N133     N135    
 M255     N135     N133     N109     N111    
 M256     N111     N109     N83      N85     
 M257     N204     N180     N179     N203    
 M258     N203     N179     N177     N201    
 M259     N201     N177     N175     N199    
 M260     N199     N175     N173     N191    
 M261     N191     N173     N163     N165    
 M262     N165     N163     N131     N133    
 M263     N133     N131     N107     N109    
 M264     N109     N107     N81      N83     
 M265     N180     N150     N149     N179    
 M266     N179     N149     N147     N177    
 M267     N177     N147     N145     N175    
 M268     N175     N145     N143     N173    
 M269     N173     N143     N141     N163    
 M270     N163     N141     N129     N131    
 M271     N131     N129     N105     N107    
 M272     N107     N105     N79      N81     
 M273     N150     N127     N126     N149    
 M274     N149     N126     N124     N147    
 M275     N147     N124     N122     N145    
 M276     N145     N122     N120     N143    
 M277     N143     N120     N118     N141    
 M278     N141     N118     N116     N129    
 M279     N129     N116     N103     N105    
 M280     N105     N103     N77      N79     
 M281     N127     N102     N101     N126    
 M282     N126     N101     N99      N124    
 M283     N124     N99      N97      N122    
 M284     N122     N97      N95      N120    
 M285     N120     N95      N93      N118    
 M286     N118     N93      N91      N116    
 M287     N116     N91      N90      N103    
 M288     N103     N90      N76      N77     
 M289     N241     N238     N237     N236    
 M290     N238     N230     N228     N237    
 M291     N230     N216     N214     N228    
 M292     N216     N196     N194     N214    
 M293     N196     N170     N168     N194    
 M294     N170     N138     N136     N168    
 M295     N138     N114     N112     N136    
 M296     N114     N88      N86      N112    
 M297     N236     N237     N227     N226    
 M298     N237     N228     N225     N227    
 M299     N228     N214     N212     N225    
 M300     N214     N194     N192     N212    
 M301     N194     N168     N166     N192    
 M302     N168     N136     N134     N166    
 M303     N136     N112     N110     N134    
 M304     N112     N86      N84      N110    
 M305     N226     N227     N211     N210    
 M306     N227     N225     N209     N211    
 M307     N225     N212     N207     N209    
 M308     N212     N192     N190     N207    
 M309     N192     N166     N164     N190    
 M310     N166     N134     N132     N164    
 M311     N134     N110     N108     N132    
 M312     N110     N84      N82      N108    
 M313     N210     N211     N189     N188    
 M314     N211     N209     N187     N189    
 M315     N209     N207     N185     N187    
 M316     N207     N190     N183     N185    
 M317     N190     N164     N162     N183    
 M318     N164     N132     N130     N162    
 M319     N132     N108     N106     N130    
 M320     N108     N82      N80      N106    
 M321     N188     N189     N161     N160    
 M322     N189     N187     N159     N161    
 M323     N187     N185     N157     N159    
 M324     N185     N183     N155     N157    
 M325     N183     N162     N153     N155    
 M326     N162     N130     N128     N153    
 M327     N130     N106     N104     N128    
 M328     N106     N80      N78      N104    
 M329     N88      N89      N63      N86     
 M330     N89      N87      N62      N63     
 M331     N87      N85      N61      N62     
 M332     N85      N83      N59      N61     
 M333     N83      N81      N57      N59     
 M334     N81      N79      N55      N57     
 M335     N79      N77      N53      N55     
 M336     N77      N76      N64      N53     
 M337     N86      N63      N60      N84     
 M338     N63      N62      N41      N60     
 M339     N62      N61      N40      N41     
 M340     N61      N59      N39      N40     
 M341     N59      N57      N37      N39     
 M342     N57      N55      N35      N37     
 M343     N55      N53      N42      N35     
 M344     N53      N64      N43      N42     
 M345     N84      N60      N58      N82     
 M346     N60      N41      N38      N58     
 M347     N41      N40      N23      N38     
 M348     N40      N39      N22      N23     
 M349     N39      N37      N21      N22     
 M350     N37      N35      N24      N21     
 M351     N35      N42      N25      N24     
 M352     N42      N43      N26      N25     
 M353     N82      N58      N56      N80     
 M354     N58      N38      N36      N56     
 M355     N38      N23      N20      N36     
 M356     N23      N22      N9       N20     
 M357     N22      N21      N10      N9      
 M358     N21      N24      N11      N10     
 M359     N24      N25      N12      N11     
 M360     N25      N26      N13      N12     
 M361     N80      N56      N54      N78     
 M362     N56      N36      N34      N54     
 M363     N36      N20      N19      N34     
 M364     N20      N9       N8       N19     
 M365     N9       N10      N1       N8      
 M366     N10      N11      N2       N1      
 M367     N11      N12      N3       N2      
 M368     N12      N13      N4       N3      
 M369     N76      N90      N65      N64     
 M370     N90      N91      N66      N65     
 M371     N91      N93      N68      N66     
 M372     N93      N95      N70      N68     
 M373     N95      N97      N72      N70     
 M374     N97      N99      N74      N72     
 M375     N99      N101     N75      N74     
 M376     N101     N102     N100     N75     
 M377     N64      N65      N44      N43     
 M378     N65      N66      N45      N44     
 M379     N66      N68      N47      N45     
 M380     N68      N70      N49      N47     
 M381     N70      N72      N51      N49     
 M382     N72      N74      N52      N51     
 M383     N74      N75      N73      N52     
 M384     N75      N100     N98      N73     
 M385     N43      N44      N27      N26     
 M386     N44      N45      N28      N27     
 M387     N45      N47      N30      N28     
 M388     N47      N49      N32      N30     
 M389     N49      N51      N33      N32     
 M390     N51      N52      N50      N33     
 M391     N52      N73      N71      N50     
 M392     N73      N98      N96      N71     
 M393     N26      N27      N14      N13     
 M394     N27      N28      N15      N14     
 M395     N28      N30      N17      N15     
 M396     N30      N32      N18      N17     
 M397     N32      N33      N31      N18     
 M398     N33      N50      N48      N31     
 M399     N50      N71      N69      N48     
 M400     N71      N96      N94      N69     
 M401     N13      N14      N5       N4      
 M402     N14      N15      N6       N5      
 M403     N15      N17      N7       N6      
 M404     N17      N18      N16      N7      
 M405     N18      N31      N29      N16     
 M406     N31      N48      N46      N29     
 M407     N48      N69      N67      N46     
 M408     N69      N94      N92      N67     
 M409     N102     N127     N125     N100    
 M410     N127     N150     N148     N125    
 M411     N150     N180     N178     N148    
 M412     N180     N204     N202     N178    
 M413     N204     N222     N220     N202    
 M414     N222     N234     N232     N220    
 M415     N234     N240     N235     N232    
 M416     N240     N241     N236     N235    
 M417     N100     N125     N123     N98     
 M418     N125     N148     N146     N123    
 M419     N148     N178     N176     N146    
 M420     N178     N202     N200     N176    
 M421     N202     N220     N218     N200    
 M422     N220     N232     N223     N218    
 M423     N232     N235     N224     N223    
 M424     N235     N236     N226     N224    
 M425     N98      N123     N121     N96     
 M426     N123     N146     N144     N121    
 M427     N146     N176     N174     N144    
 M428     N176     N200     N198     N174    
 M429     N200     N218     N205     N198    
 M430     N218     N223     N206     N205    
 M431     N223     N224     N208     N206    
 M432     N224     N226     N210     N208    
 M433     N96      N121     N119     N94     
 M434     N121     N144     N142     N119    
 M435     N144     N174     N172     N142    
 M436     N174     N198     N181     N172    
 M437     N198     N205     N182     N181    
 M438     N205     N206     N184     N182    
 M439     N206     N208     N186     N184    
 M440     N208     N210     N188     N186    
 M441     N94      N119     N117     N92     
 M442     N119     N142     N140     N117    
 M443     N142     N172     N151     N140    
 M444     N172     N181     N152     N151    
 M445     N181     N182     N154     N152    
 M446     N182     N184     N156     N154    
 M447     N184     N186     N158     N156    
 M448     N186     N188     N160     N158    
 FINSF
 %
 GROUP_NO
 P1                      
 N482    
 FINSF
 %
 GROUP_NO
 P2                      
 N329    
 FINSF
 %
 GROUP_NO
 P3                      
 N317    
 FINSF
 %
 GROUP_NO
 P4                      
 N343    
 FINSF
 %
 GROUP_MA
 LLATE1                  
 M1295    M1296    M1297    M1298    M1299    M1300    M1301   
 M1302   
 FINSF
 %
 GROUP_MA
 LLATE2                  
 M1229    M1230    M1231    M1232    M1233    M1234    M1235   
 M1236   
 FINSF
 %
 GROUP_MA
 LLATE3                  
 M1163    M1164    M1165    M1166    M1167    M1168    M1169   
 M1170   
 FINSF
 %
 GROUP_MA
 LLATE4                  
 M1097    M1098    M1099    M1100    M1101    M1102    M1103   
 M1104   
 FINSF
 %
 GROUP_MA
 SBAS                    
 M1       M2       M3       M4       M5       M6       M7      
 M8       M9       M10      M11      M12      M13      M14     
 M15      M16      M17      M18      M19      M20      M21     
 M22      M23      M24      M25      M26      M27      M28     
 M29      M30      M31      M32      M33      M34      M35     
 M36      M37      M38      M39      M40      M41      M42     
 M43      M44      M45      M46      M47      M48      M49     
 M50      M51      M52      M53      M54      M55      M56     
 M57      M58      M59      M60      M61      M62      M63     
 M64      M65      M66      M67      M68      M69      M70     
 M71      M72      M73      M74      M75      M76      M77     
 M78      M79      M80      M81      M82      M83      M84     
 M85      M86      M87      M88      M89      M90      M91     
 M92      M93      M94      M95      M96      M97      M98     
 M99      M100     M101     M102     M103     M104     M105    
 M106     M107     M108     M109     M110     M111     M112    
 M113     M114     M115     M116     M117     M118     M119    
 M120     M121     M122     M123     M124     M125     M126    
 M127     M128     M129     M130     M131     M132     M133    
 M134     M135     M136     M137     M138     M139     M140    
 M141     M142     M143     M144     M145     M146     M147    
 M148     M149     M150     M151     M152     M153     M154    
 M155     M156     M157     M158     M159     M160     M161    
 M162     M163     M164     M165     M166     M167     M168    
 M169     M170     M171     M172     M173     M174     M175    
 M176     M177     M178     M179     M180     M181     M182    
 M183     M184     M185     M186     M187     M188     M189    
 M190     M191     M192     M193     M194     M195     M196    
 M197     M198     M199     M200     M201     M202     M203    
 M204     M205     M206     M207     M208     M209     M210    
 M211     M212     M213     M214     M215     M216     M217    
 M218     M219     M220     M221     M222     M223     M224    
 M225     M226     M227     M228     M229     M230     M231    
 M232     M233     M234     M235     M236     M237     M238    
 M239     M240     M241     M242     M243     M244     M245    
 M246     M247     M248     M249     M250     M251     M252    
 M253     M254     M255     M256     M257     M258     M259    
 M260     M261     M262     M263     M264     M265     M266    
 M267     M268     M269     M270     M271     M272     M273    
 M274     M275     M276     M277     M278     M279     M280    
 M281     M282     M283     M284     M285     M286     M287    
 M288     M289     M290     M291     M292     M293     M294    
 M295     M296     M297     M298     M299     M300     M301    
 M302     M303     M304     M305     M306     M307     M308    
 M309     M310     M311     M312     M313     M314     M315    
 M316     M317     M318     M319     M320     M321     M322    
 M323     M324     M325     M326     M327     M328     M329    
 M330     M331     M332     M333     M334     M335     M336    
 M337     M338     M339     M340     M341     M342     M343    
 M344     M345     M346     M347     M348     M349     M350    
 M351     M352     M353     M354     M355     M356     M357    
 M358     M359     M360     M361     M362     M363     M364    
 M365     M366     M367     M368     M369     M370     M371    
 M372     M373     M374     M375     M376     M377     M378    
 M379     M380     M381     M382     M383     M384     M385    
 M386     M387     M388     M389     M390     M391     M392    
 M393     M394     M395     M396     M397     M398     M399    
 M400     M401     M402     M403     M404     M405     M406    
 M407     M408     M409     M410     M411     M412     M413    
 M414     M415     M416     M417     M418     M419     M420    
 M421     M422     M423     M424     M425     M426     M427    
 M428     M429     M430     M431     M432     M433     M434    
 M435     M436     M437     M438     M439     M440     M441    
 M442     M443     M444     M445     M446     M447     M448    
 FINSF
 %
 GROUP_MA
 SBAS1                   
 M1       M2       M3       M4       M5       M6       M7      
 M8       M9       M10      M11      M12      M13      M14     
 M15      M16      M17      M18      M19      M20      M21     
 M22      M23      M24      M25      M26      M27      M28     
 M29      M30      M31      M32      M33      M34      M35     
 M36      M37      M38      M39      M40      M41      M42     
 M43      M44      M45      M46      M47      M48      M49     
 M50      M51      M52      M53      M54      M55      M56     
 M57      M58      M59      M60      M61      M62      M63     
 M64      M65      M66      M67      M68      M69      M70     
 M71      M72      M73      M74      M75      M76      M77     
 M78      M79      M80      M81      M82      M83      M84     
 M85      M86      M87      M88      M89      M90      M91     
 M92      M93      M94      M95      M96      M97      M98     
 M99      M100     M101     M102     M103     M104     M105    
 M106     M107     M108     M109     M110     M111     M112    
 M113     M114     M115     M116     M117     M118     M119    
 M120     M121     M122     M123     M124     M125     M126    
 M127     M128     M129     M130     M131     M132     M133    
 M134     M135     M136     M137     M138     M139     M140    
 M141     M142     M143     M144     M145     M146     M147    
 M148     M149     M150     M151     M152     M153     M154    
 M155     M156     M157     M158     M159     M160     M161    
 M162     M163     M164     M165     M166     M167     M168    
 M169     M170     M171     M172     M173     M174     M175    
 M176     M177     M178     M179     M180     M181     M182    
 M183     M184     M185     M186     M187     M188     M189    
 M190     M191     M192     M193     M194     M195     M196    
 M197     M198     M199     M200     M201     M202     M203    
 M204     M205     M206     M207     M208     M209     M210    
 M211     M212     M213     M214     M215     M216     M217    
 M218     M219     M220     M221     M222     M223     M224    
 FINSF
 %
 GROUP_MA
 SBASE                   
 M1       M2       M3       M4       M5       M6       M7      
 M8       M9       M10      M11      M12      M13      M14     
 M15      M16      M17      M18      M19      M20      M21     
 M22      M23      M24      M25      M26      M27      M28     
 M29      M30      M31      M32      M33      M34      M35     
 M36      M37      M38      M39      M40      M41      M42     
 M43      M44      M45      M46      M47      M48      M49     
 M50      M51      M52      M53      M54      M55      M56     
 M57      M58      M59      M60      M61      M62      M63     
 M64     
 FINSF
 %
 GROUP_MA
 SLATE                   
 M65      M66      M67      M68      M69      M70      M71     
 M72      M73      M74      M75      M76      M77      M78     
 M79      M80      M81      M82      M83      M84      M85     
 M86      M87      M88      M89      M90      M91      M92     
 M93      M94      M95      M96      M97      M98      M99     
 M100     M101     M102     M103     M104     M105     M106    
 M107     M108     M109     M110     M111     M112     M113    
 M114     M115     M116     M117     M118     M119     M120    
 M121     M122     M123     M124     M125     M126     M127    
 M128     M129     M130     M131     M132     M133     M134    
 M135     M136     M137     M138     M139     M140     M141    
 M142     M143     M144     M145     M146     M147     M148    
 M149     M150     M151     M152     M153     M154     M155    
 M156     M157     M158     M159     M160     M161     M162    
 M163     M164     M165     M166     M167     M168     M169    
 M170     M171     M172     M173     M174     M175     M176    
 M177     M178     M179     M180     M181     M182     M183    
 M184     M185     M186     M187     M188     M189     M190    
 M191     M192     M193     M194     M195     M196     M197    
 M198     M199     M200     M201     M202     M203     M204    
 M205     M206     M207     M208     M209     M210     M211    
 M212     M213     M214     M215     M216     M217     M218    
 M219     M220     M221     M222     M223     M224    
 FINSF
 %
 GROUP_MA
 SLATE1                  
 M65      M66      M67      M68      M69      M70      M71     
 M72      M73      M74      M75      M76      M77      M78     
 M79      M80      M81      M82      M83      M84      M85     
 M86      M87      M88      M89      M90      M91      M92     
 M93      M94      M95      M96      M97      M98      M99     
 M100     M101     M102     M103     M104    
 FINSF
 %
 GROUP_MA
 SLATE2                  
 M105     M106     M107     M108     M109     M110     M111    
 M112     M113     M114     M115     M116     M117     M118    
 M119     M120     M121     M122     M123     M124     M125    
 M126     M127     M128     M129     M130     M131     M132    
 M133     M134     M135     M136     M137     M138     M139    
 M140     M141     M142     M143     M144    
 FINSF
 %
 GROUP_MA
 SLATE3                  
 M145     M146     M147     M148     M149     M150     M151    
 M152     M153     M154     M155     M156     M157     M158    
 M159     M160     M161     M162     M163     M164     M165    
 M166     M167     M168     M169     M170     M171     M172    
 M173     M174     M175     M176     M177     M178     M179    
 M180     M181     M182     M183     M184    
 FINSF
 %
 GROUP_MA
 SLATE4                  
 M185     M186     M187     M188     M189     M190     M191    
 M192     M193     M194     M195     M196     M197     M198    
 M199     M200     M201     M202     M203     M204     M205    
 M206     M207     M208     M209     M210     M211     M212    
 M213     M214     M215     M216     M217     M218     M219    
 M220     M221     M222     M223     M224    
 FINSF
 %
 GROUP_MA
 SBAS2                   
 M225     M226     M227     M228     M229     M230     M231    
 M232     M233     M234     M235     M236     M237     M238    
 M239     M240     M241     M242     M243     M244     M245    
 M246     M247     M248     M249     M250     M251     M252    
 M253     M254     M255     M256     M257     M258     M259    
 M260     M261     M262     M263     M264     M265     M266    
 M267     M268     M269     M270     M271     M272     M273    
 M274     M275     M276     M277     M278     M279     M280    
 M281     M282     M283     M284     M285     M286     M287    
 M288     M289     M290     M291     M292     M293     M294    
 M295     M296     M297     M298     M299     M300     M301    
 M302     M303     M304     M305     M306     M307     M308    
 M309     M310     M311     M312     M313     M314     M315    
 M316     M317     M318     M319     M320     M321     M322    
 M323     M324     M325     M326     M327     M328     M329    
 M330     M331     M332     M333     M334     M335     M336    
 M337     M338     M339     M340     M341     M342     M343    
 M344     M345     M346     M347     M348     M349     M350    
 M351     M352     M353     M354     M355     M356     M357    
 M358     M359     M360     M361     M362     M363     M364    
 M365     M366     M367     M368     M369     M370     M371    
 M372     M373     M374     M375     M376     M377     M378    
 M379     M380     M381     M382     M383     M384     M385    
 M386     M387     M388     M389     M390     M391     M392    
 M393     M394     M395     M396     M397     M398     M399    
 M400     M401     M402     M403     M404     M405     M406    
 M407     M408     M409     M410     M411     M412     M413    
 M414     M415     M416     M417     M418     M419     M420    
 M421     M422     M423     M424     M425     M426     M427    
 M428     M429     M430     M431     M432     M433     M434    
 M435     M436     M437     M438     M439     M440     M441    
 M442     M443     M444     M445     M446     M447     M448    
 FINSF
 %
 FIN
