# coding=utf-8
# --------------------------------------------------------------------
# Copyright (C) 1991 - 2025 - EDF R&D - www.code-aster.org
# This file is part of code_aster.
#
# code_aster is free software: you can redistribute it and/or modify
# it under the terms of the GNU General Public License as published by
# the Free Software Foundation, either version 3 of the License, or
# (at your option) any later version.
#
# code_aster is distributed in the hope that it will be useful,
# but WITHOUT ANY WARRANTY; without even the implied warranty of
# MERCHANTABILITY or FITNESS FOR A PARTICULAR PURPOSE.  See the
# GNU General Public License for more details.
#
# You should have received a copy of the GNU General Public License
# along with code_aster.  If not, see <http://www.gnu.org/licenses/>.
# --------------------------------------------------------------------

# person_in_charge: ayaovi-dzifa.kudawoo at edf.fr
#  - ANALYSE DYNAMIQUE D'UNE TUYAUTERIE TRIDIMENSIONNELLE COMPORTANT
#    DES COUDES
#  - MODELISATION AVEC DES ELEMENTS 'TUYAU_6M' (6 MODES DE FOURIER)
# ---------------------------------------------------------------------
#
DEBUT(CODE="OUI", ERREUR=_F(ALARME="EXCEPTION"), DEBUG=_F(SDVERI="OUI"))
#
MAIL = LIRE_MAILLAGE(FORMAT="MED")
#
MO = AFFE_MODELE(MAILLAGE=MAIL, AFFE=_F(TOUT="OUI", PHENOMENE="MECANIQUE", MODELISATION="TUYAU_6M"))
#
# ---------------------------------------------------------------------
#                     CARACTERISTIQUES ELEMENTAIRES
# ---------------------------------------------------------------------
#
CAR_ELE = AFFE_CARA_ELEM(
    MODELE=MO,
    POUTRE=_F(GROUP_MA="TOUT_ELT", SECTION="CERCLE", CARA=("R", "EP"), VALE=(0.0925, 0.00612)),
    ORIENTATION=_F(GROUP_NO="C", CARA="GENE_TUYAU", VALE=(1.0, 0.0, 0.0)),
)

#
# ---------------------------------------------------------------------
#                     CARACTERISTIQUES MATERIAUX
# ---------------------------------------------------------------------
#
MAT = DEFI_MATERIAU(ELAS=_F(E=1.658e11, NU=0.3, RHO=13404.106))

#
AFFMAT = AFFE_MATERIAU(MAILLAGE=MAIL, AFFE=_F(TOUT="OUI", MATER=MAT))

#
# ---------------------------------------------------------------------
#                     CHARGEMENTS
# ---------------------------------------------------------------------
#
CHAR = AFFE_CHAR_MECA(
    MODELE=MO,
    DDL_IMPO=_F(GROUP_NO=("H", "C"), BLOCAGE=("DEPLACEMENT", "ROTATION", "TUYAU_FOURIER")),
)

#
# ---------------------------------------------------------------------
#                        RESOLUTION
# ---------------------------------------------------------------------
#
ASSEMBLAGE(
    MODELE=MO,
    CARA_ELEM=CAR_ELE,
    CHAM_MATER=AFFMAT,
    CHARGE=CHAR,
    NUME_DDL=CO("NU"),
    MATR_ASSE=(_F(MATRICE=CO("K"), OPTION="RIGI_MECA"), _F(MATRICE=CO("M"), OPTION="MASS_MECA")),
    TITRE="MAT_ASSE",
)

#
MODES = CALC_MODES(
    MATR_RIGI=K,
    OPTION="PLUS_PETITE",
    CALC_FREQ=_F(NMAX_FREQ=9),
    MATR_MASS=M,
    SOLVEUR_MODAL=_F(METHODE="TRI_DIAG"),
)

#
# ---------------------------------------------------------------------
#                        VERIFICATION DES RESULTATS
# ---------------------------------------------------------------------
#
TEST_RESU(
    RESU=(
        _F(
            NUME_ORDRE=1,
            PARA="FREQ",
            RESULTAT=MODES,
            VALE_CALC=10.504147347798774,
            VALE_REFE=10.390000000000001,
            REFERENCE="SOURCE_EXTERNE",
            CRITERE="RELATIF",
            PRECISION=0.025000000000000001,
        ),
        _F(
            NUME_ORDRE=2,
            PARA="FREQ",
            RESULTAT=MODES,
            VALE_CALC=20.26838945208283,
            VALE_REFE=20.02,
            REFERENCE="SOURCE_EXTERNE",
            CRITERE="RELATIF",
            PRECISION=0.025000000000000001,
        ),
        _F(
            NUME_ORDRE=3,
            PARA="FREQ",
            RESULTAT=MODES,
            VALE_CALC=25.85405364025725,
            VALE_REFE=25.449999999999999,
            REFERENCE="SOURCE_EXTERNE",
            CRITERE="RELATIF",
            PRECISION=0.025000000000000001,
        ),
        _F(
            NUME_ORDRE=4,
            PARA="FREQ",
            RESULTAT=MODES,
            VALE_CALC=48.921519832526286,
            VALE_REFE=48.32,
            REFERENCE="SOURCE_EXTERNE",
            CRITERE="RELATIF",
            PRECISION=0.025000000000000001,
        ),
        _F(
            NUME_ORDRE=5,
            PARA="FREQ",
            RESULTAT=MODES,
            VALE_CALC=53.00953147534933,
            VALE_REFE=52.600000000000001,
            REFERENCE="SOURCE_EXTERNE",
            CRITERE="RELATIF",
            PRECISION=0.025000000000000001,
        ),
        _F(
            NUME_ORDRE=6,
            PARA="FREQ",
            RESULTAT=MODES,
            VALE_CALC=85.37590840375299,
            VALE_REFE=84.810000000000002,
            REFERENCE="SOURCE_EXTERNE",
            CRITERE="RELATIF",
            PRECISION=0.025000000000000001,
        ),
        _F(
            NUME_ORDRE=7,
            PARA="FREQ",
            RESULTAT=MODES,
            VALE_CALC=87.97594817462955,
            VALE_REFE=87.159999999999997,
            REFERENCE="SOURCE_EXTERNE",
            CRITERE="RELATIF",
            PRECISION=0.025000000000000001,
        ),
        _F(
            NUME_ORDRE=8,
            PARA="FREQ",
            RESULTAT=MODES,
            VALE_CALC=130.55665308747123,
            VALE_REFE=129.31,
            REFERENCE="SOURCE_EXTERNE",
            CRITERE="RELATIF",
            PRECISION=0.025000000000000001,
        ),
        _F(
            NUME_ORDRE=9,
            PARA="FREQ",
            RESULTAT=MODES,
            VALE_CALC=133.1442281878195,
            VALE_REFE=131.69,
            REFERENCE="SOURCE_EXTERNE",
            CRITERE="RELATIF",
            PRECISION=0.025000000000000001,
        ),
    )
)

#
FIN()
#
#
