 TITRE
CODE_ASTER - 15.03.21 - DÉVELOPPEMENT (unstable)           dsp0884003       - L
 FINSF
 %
 COOR_3D
 NA1       0.00000000000000E+00  0.00000000000000E+00  1.05000000000000E+01
 NA2       0.00000000000000E+00  0.00000000000000E+00  1.03750000000000E+01
 NA3       0.00000000000000E+00  0.00000000000000E+00  1.02500000000000E+01
 NA4       0.00000000000000E+00  0.00000000000000E+00  7.75000000000000E+00
 NA5       0.00000000000000E+00  0.00000000000000E+00  7.62500000000000E+00
 NA6       0.00000000000000E+00  0.00000000000000E+00  7.50000000000000E+00
 NA7       0.00000000000000E+00  0.00000000000000E+00  5.00000000000000E+00
 NA8       0.00000000000000E+00  0.00000000000000E+00  4.80000000000000E+00
 NA9       0.00000000000000E+00  0.00000000000000E+00  4.60000000000000E+00
 NA10      0.00000000000000E+00  0.00000000000000E+00  3.50000000000000E+00
 NA11      0.00000000000000E+00  0.00000000000000E+00  1.60000000000000E+00
 NA12      0.00000000000000E+00  0.00000000000000E+00  8.00000000000000E-01
 NA13      0.00000000000000E+00  0.00000000000000E+00  0.00000000000000E+00
 NB1       0.00000000000000E+00  1.60000000000000E+01  1.05000000000000E+01
 NB2       0.00000000000000E+00  1.60000000000000E+01  1.03750000000000E+01
 NB3       0.00000000000000E+00  1.60000000000000E+01  1.02500000000000E+01
 NB4       0.00000000000000E+00  1.60000000000000E+01  7.75000000000000E+00
 NB5       0.00000000000000E+00  1.60000000000000E+01  7.62500000000000E+00
 NB6       0.00000000000000E+00  1.60000000000000E+01  7.50000000000000E+00
 NB7       0.00000000000000E+00  1.60000000000000E+01  5.00000000000000E+00
 NB8       0.00000000000000E+00  1.60000000000000E+01  4.80000000000000E+00
 NB9       0.00000000000000E+00  1.60000000000000E+01  4.60000000000000E+00
 NB10      0.00000000000000E+00  1.60000000000000E+01  3.50000000000000E+00
 NB11      0.00000000000000E+00  1.60000000000000E+01  1.60000000000000E+00
 NB12      0.00000000000000E+00  1.60000000000000E+01  8.00000000000000E-01
 NB13      0.00000000000000E+00  1.60000000000000E+01  0.00000000000000E+00
 FINSF
 %
 POI1    
 MASA1    NA2     
 MASA2    NA5     
 MASA3    NA8     
 MASA4    NA12    
 MBSA1    NB2     
 MBSA2    NB5     
 MBSA3    NB8     
 MBSA4    NB12    
 FINSF
 %
 SEG2    
 EA101    NA1      NA2     
 EA201    NA2      NA3     
 EA301    NA3      NA4     
 EA401    NA4      NA5     
 EA501    NA5      NA6     
 EA601    NA6      NA7     
 EA701    NA7      NA8     
 EA801    NA8      NA9     
 EA901    NA9      NA10    
 EA1001   NA10     NA11    
 EA1101   NA11     NA12    
 EA1201   NA12     NA13    
 EB101    NB1      NB2     
 EB201    NB2      NB3     
 EB301    NB3      NB4     
 EB401    NB4      NB5     
 EB501    NB5      NB6     
 EB601    NB6      NB7     
 EB701    NB7      NB8     
 EB801    NB8      NB9     
 EB901    NB9      NB10    
 EB1001   NB10     NB11    
 EB1101   NB11     NB12    
 EB1201   NB12     NB13    
 EAB13    NA13     NB13    
 FINSF
 %
 GROUP_NO
 NA1                     
 NA1     
 FINSF
 %
 GROUP_NO
 ENCASTRE                
 NA13     NB13    
 FINSF
 %
 GROUP_NO
 PA0                     
 NA13    
 FINSF
 %
 GROUP_NO
 NB1                     
 NB1     
 FINSF
 %
 GROUP_NO
 PB0                     
 NB13    
 FINSF
 %
 GROUP_MA
 MASSES                  
 MASA1    MASA2    MASA3    MASA4    MBSA1    MBSA2    MBSA3   
 MBSA4   
 FINSF
 %
 GROUP_MA
 MASA1                   
 MASA1   
 FINSF
 %
 GROUP_MA
 MASA2                   
 MASA2   
 FINSF
 %
 GROUP_MA
 MASA3                   
 MASA3   
 FINSF
 %
 GROUP_MA
 MASA4                   
 MASA4   
 FINSF
 %
 GROUP_MA
 MBSA1                   
 MBSA1   
 FINSF
 %
 GROUP_MA
 MBSA2                   
 MBSA2   
 FINSF
 %
 GROUP_MA
 MBSA3                   
 MBSA3   
 FINSF
 %
 GROUP_MA
 MBSA4                   
 MBSA4   
 FINSF
 %
 GROUP_MA
 MAT_1                   
 EA101    EA201    EA301    EA401    EA501    EA601    EA701   
 EA801    EA901    EA1001   EA1101   EA1201   EB101    EB201   
 EB301    EB401    EB501    EB601    EB701    EB801    EB901   
 EB1001   EB1101   EB1201   EAB13   
 FINSF
 %
 GROUP_MA
 POU_D_T                 
 EA101    EA201    EA301    EA401    EA501    EA601    EA701   
 EA801    EA901    EA1001   EA1101   EA1201   EB101    EB201   
 EB301    EB401    EB501    EB601    EB701    EB801    EB901   
 EB1001   EB1101   EB1201  
 FINSF
 %
 GROUP_MA
 SEC_1                   
 EA101    EA201    EA401    EA501    EB101    EB201    EB401   
 EB501   
 FINSF
 %
 GROUP_MA
 SEC_2                   
 EA301    EA601    EB301    EB601   
 FINSF
 %
 GROUP_MA
 SEC_3                   
 EA701    EA801    EB701    EB801   
 FINSF
 %
 GROUP_MA
 SEC_4                   
 EA901    EA1001   EB901    EB1001  
 FINSF
 %
 GROUP_MA
 SEC_5                   
 EA1101   EA1201   EB1101   EB1201  
 FINSF
 %
 GROUP_MA
 LSOL                    
 EAB13   
 FINSF
 %
 FIN
