# coding=utf-8
# --------------------------------------------------------------------
# Copyright (C) 1991 - 2025 - EDF R&D - www.code-aster.org
# This file is part of code_aster.
#
# code_aster is free software: you can redistribute it and/or modify
# it under the terms of the GNU General Public License as published by
# the Free Software Foundation, either version 3 of the License, or
# (at your option) any later version.
#
# code_aster is distributed in the hope that it will be useful,
# but WITHOUT ANY WARRANTY; without even the implied warranty of
# MERCHANTABILITY or FITNESS FOR A PARTICULAR PURPOSE.  See the
# GNU General Public License for more details.
#
# You should have received a copy of the GNU General Public License
# along with code_aster.  If not, see <http://www.gnu.org/licenses/>.
# --------------------------------------------------------------------

# CAS_TEST__: SDLX03B
# SDLX03/B                 COMMANDES                             5/03/91
# ASSEMBLAGE DE PLAQUES RECTANGULAIRES MINCES ENTRETOISEES
# 2 PLAQUES HORIZONTALES: 0.375*0.20*0.005 M
# 2 PLAQUES VERTICALES:   0.375*0.05*0.005 M       REF: SFM.VPCS SDLX03
# MODELISATION DKT
# LA JONCTION DES PLAQUES PERPENDICULAIRES EST MODELISEE
# D'UNE PART AVEC LE MOT CLE LIAISON_COQUE DE AFFE_CHAR_MECA
# D'AUTRE PART AVEC LE MOT CLE LIAISON_SOLIDE DE AFFE_CHAR_MECA
# ON VERIFIE LA COHERENCE DE CES 2 CALCULS
# LE BUT D'UN TEL RACCORD EST D'AVOIR LA MASSE EXACTE DE LA STRUCTURE
# (DE FACON CLASSIQUE ON COMPTE 2 FOIS LA MASSE DE LA JONCTION)
# ======================================================================


DEBUT(CODE="OUI", ERREUR=_F(ALARME="EXCEPTION"), DEBUG=_F(SDVERI="OUI"))

MA = LIRE_MAILLAGE(FORMAT="MED")

MA = DEFI_GROUP(reuse=MA, MAILLAGE=MA, CREA_GROUP_MA=_F(NOM="TOUT", TOUT="OUI"))

MO = AFFE_MODELE(MAILLAGE=MA, AFFE=_F(TOUT="OUI", PHENOMENE="MECANIQUE", MODELISATION="DKT"))

CARELEM = AFFE_CARA_ELEM(
    MODELE=MO,
    COQUE=_F(GROUP_MA="TOUT", EPAIS=0.005, ANGL_REP=(1.0, 0.0), COEF_RIGI_DRZ=0.000000001),
)

MAT = DEFI_MATERIAU(ELAS=_F(E=2.1e11, NU=0.3, RHO=7800.0))

CHMAT = AFFE_MATERIAU(MAILLAGE=MA, AFFE=_F(TOUT="OUI", MATER=MAT))

CH1 = AFFE_CHAR_MECA(
    MODELE=MO,
    LIAISON_COQUE=(
        _F(GROUP_MA_1="P2P7", GROUP_MA_2="P17P22"),
        _F(GROUP_MA_1="P3P6", GROUP_MA_2="P18P21"),
        _F(GROUP_MA_1="P24P19", GROUP_MA_2="P14P11"),
        _F(GROUP_MA_1="P23P20", GROUP_MA_2="P15P10"),
    ),
)

CH2 = AFFE_CHAR_MECA(
    MODELE=MO,
    LIAISON_SOLIDE=(
        _F(GROUP_NO=("N241", "N44")),
        _F(GROUP_NO=("N240", "N43")),
        _F(GROUP_NO=("N235", "N40")),
        _F(GROUP_NO=("N231", "N38")),
        _F(GROUP_NO=("N223", "N36")),
        _F(GROUP_NO=("N216", "N34")),
        _F(GROUP_NO=("N205", "N32")),
        _F(GROUP_NO=("N195", "N30")),
        _F(GROUP_NO=("N182", "N28")),
        _F(GROUP_NO=("N173", "N26")),
        _F(GROUP_NO=("N163", "N24")),
        _F(GROUP_NO=("N199", "N22")),
        _F(GROUP_NO=("N198", "N21")),
        _F(GROUP_NO=("N197", "N18")),
        _F(GROUP_NO=("N196", "N16")),
        _F(GROUP_NO=("N188", "N14")),
        _F(GROUP_NO=("N176", "N12")),
        _F(GROUP_NO=("N166", "N10")),
        _F(GROUP_NO=("N157", "N8")),
        _F(GROUP_NO=("N151", "N6")),
# ... 24 like lines cut
    ),
)

# --- STRUCTURE LIBRE-LIBRE ==> PAS DE CHARGE_MECA
#
# --------------------------------------------------------------------
#
MELR1 = CALC_MATR_ELEM(
    MODELE=MO, CARA_ELEM=CARELEM, CHAM_MATER=CHMAT, OPTION="RIGI_MECA", CHARGE=CH1
)

MELR2 = CALC_MATR_ELEM(
    MODELE=MO, CARA_ELEM=CARELEM, CHAM_MATER=CHMAT, OPTION="RIGI_MECA", CHARGE=CH2
)

MELM = CALC_MATR_ELEM(MODELE=MO, CARA_ELEM=CARELEM, CHAM_MATER=CHMAT, OPTION="MASS_MECA")

#
# --------------------------------------------------------------------
#
NUM1 = NUME_DDL(MATR_RIGI=MELR1)

NUM2 = NUME_DDL(MATR_RIGI=MELR2)

MATASSR1 = ASSE_MATRICE(MATR_ELEM=MELR1, NUME_DDL=NUM1)

MATASSR2 = ASSE_MATRICE(MATR_ELEM=MELR2, NUME_DDL=NUM2)

MATASSM1 = ASSE_MATRICE(MATR_ELEM=MELM, NUME_DDL=NUM1)

MATASSM2 = ASSE_MATRICE(MATR_ELEM=MELM, NUME_DDL=NUM2)

# ====================================================================
#
#               CALCUL MODAL

MODES_1 = CALC_MODES(
    MATR_RIGI=MATASSR1, OPTION="BANDE", CALC_FREQ=_F(FREQ=(1.0, 1400.0)), MATR_MASS=MATASSM1
)


MODES_2 = CALC_MODES(
    MATR_RIGI=MATASSR2, OPTION="BANDE", CALC_FREQ=_F(FREQ=(1.0, 1400.0)), MATR_MASS=MATASSM2
)


# --------------------------------------------------------------------
TABMAS = POST_ELEM(MODELE=MO, CHAM_MATER=CHMAT, CARA_ELEM=CARELEM, MASS_INER=_F(TOUT="OUI"))

# --------------------------------------------------------------------


TEST_RESU(
    RESU=(
        _F(
            NUME_ORDRE=1,
            PARA="FREQ",
            REFERENCE="SOURCE_EXTERNE",
            RESULTAT=MODES_1,
            VALE_CALC=610.197603728,
            VALE_REFE=584.0,
            CRITERE="RELATIF",
            PRECISION=0.048000000000000001,
        ),
        _F(
            NUME_ORDRE=2,
            PARA="FREQ",
            REFERENCE="SOURCE_EXTERNE",
            RESULTAT=MODES_1,
            VALE_CALC=852.448731644,
            VALE_REFE=826.0,
            CRITERE="RELATIF",
            PRECISION=0.041000000000000002,
        ),
        _F(
            NUME_ORDRE=3,
            PARA="FREQ",
            REFERENCE="SOURCE_EXTERNE",
            RESULTAT=MODES_1,
            VALE_CALC=864.833330953,
            VALE_REFE=855.0,
            CRITERE="RELATIF",
            PRECISION=0.025999999999999999,
        ),
        _F(
            NUME_ORDRE=4,
            PARA="FREQ",
            REFERENCE="SOURCE_EXTERNE",
            RESULTAT=MODES_1,
            VALE_CALC=923.861087342,
            VALE_REFE=911.0,
            CRITERE="RELATIF",
            PRECISION=0.025999999999999999,
        ),
        _F(
            NUME_ORDRE=5,
            PARA="FREQ",
            REFERENCE="SOURCE_EXTERNE",
            RESULTAT=MODES_1,
            VALE_CALC=1.11082729e03,
            VALE_REFE=1113.0,
            CRITERE="RELATIF",
            PRECISION=1.0e-2,
        ),
        _F(
            NUME_ORDRE=6,
            PARA="FREQ",
            REFERENCE="SOURCE_EXTERNE",
            RESULTAT=MODES_1,
            VALE_CALC=1.17948695e03,
            VALE_REFE=1136.0,
            CRITERE="RELATIF",
            PRECISION=0.047,
        ),
    )
)

TEST_RESU(
    RESU=(
        _F(
            NUME_ORDRE=1,
            PARA="FREQ",
            REFERENCE="SOURCE_EXTERNE",
            RESULTAT=MODES_2,
            VALE_CALC=610.197603728,
            VALE_REFE=584.0,
            CRITERE="RELATIF",
            PRECISION=0.048000000000000001,
        ),
        _F(
            NUME_ORDRE=2,
            PARA="FREQ",
            REFERENCE="SOURCE_EXTERNE",
            RESULTAT=MODES_2,
            VALE_CALC=852.448731644,
            VALE_REFE=826.0,
            CRITERE="RELATIF",
            PRECISION=0.041000000000000002,
        ),
        _F(
            NUME_ORDRE=3,
            PARA="FREQ",
            REFERENCE="SOURCE_EXTERNE",
            RESULTAT=MODES_2,
            VALE_CALC=864.833330953,
            VALE_REFE=855.0,
            CRITERE="RELATIF",
            PRECISION=0.025999999999999999,
        ),
        _F(
            NUME_ORDRE=4,
            PARA="FREQ",
            REFERENCE="SOURCE_EXTERNE",
            RESULTAT=MODES_2,
            VALE_CALC=923.861087342,
            VALE_REFE=911.0,
            CRITERE="RELATIF",
            PRECISION=0.025999999999999999,
        ),
        _F(
            NUME_ORDRE=5,
            PARA="FREQ",
            REFERENCE="SOURCE_EXTERNE",
            RESULTAT=MODES_2,
            VALE_CALC=1.11082729e03,
            VALE_REFE=1113.0,
            CRITERE="RELATIF",
            PRECISION=1.0e-2,
        ),
        _F(
            NUME_ORDRE=6,
            PARA="FREQ",
            REFERENCE="SOURCE_EXTERNE",
            RESULTAT=MODES_2,
            VALE_CALC=1.17948695e03,
            VALE_REFE=1136.0,
            CRITERE="RELATIF",
            PRECISION=0.047,
        ),
    )
)

FIN()
#
