# coding=utf-8
# --------------------------------------------------------------------
# Copyright (C) 1991 - 2025 - EDF R&D - www.code-aster.org
# This file is part of code_aster.
#
# code_aster is free software: you can redistribute it and/or modify
# it under the terms of the GNU General Public License as published by
# the Free Software Foundation, either version 3 of the License, or
# (at your option) any later version.
#
# code_aster is distributed in the hope that it will be useful,
# but WITHOUT ANY WARRANTY; without even the implied warranty of
# MERCHANTABILITY or FITNESS FOR A PARTICULAR PURPOSE.  See the
# GNU General Public License for more details.
#
# You should have received a copy of the GNU General Public License
# along with code_aster.  If not, see <http://www.gnu.org/licenses/>.
# --------------------------------------------------------------------
#
DEBUT(CODE="OUI", ERREUR=_F(ALARME="EXCEPTION"), DEBUG=_F(SDVERI="NON"))
# SDVERI='NON' car la verification est trop couteuse en CPU
import numpy as NU

mail = LIRE_MAILLAGE(UNITE=20, FORMAT="ASTER")

modele = AFFE_MODELE(
    MAILLAGE=mail, AFFE=_F(GROUP_MA=("GAC", "RESSORT"), PHENOMENE="MECANIQUE", MODELISATION="DIS_T")
)

Pesanteur = 10.0
Raidxyz = 2.0
Masse = 15.0
#
Kress = 500.0
Tfin = 10.0
#
carael = AFFE_CARA_ELEM(
    MODELE=modele,
    DISCRET=(
        _F(GROUP_MA="RESSORT", REPERE="LOCAL", CARA="K_T_D_L", VALE=(Kress, Kress, Kress)),
        _F(GROUP_MA="RESSORT", CARA="M_T_D_L", VALE=(0.0,)),
        _F(GROUP_MA="RESSORT", CARA="A_T_D_L", VALE=(0.0, 0.0, 0.0)),
        _F(GROUP_MA="GAC", REPERE="LOCAL", CARA="K_T_D_L", VALE=(Raidxyz, Raidxyz, Raidxyz)),
        _F(GROUP_MA="GAC", CARA="M_T_D_L", VALE=(Masse,)),
        _F(GROUP_MA="GAC", CARA="A_T_D_L", VALE=(0.0, 0.0, 0.0)),
    ),
)
charge = AFFE_CHAR_MECA(
    MODELE=modele,
    PESANTEUR=_F(GROUP_MA="GAC", GRAVITE=Pesanteur, DIRECTION=(1.0, 0.0, 0.0)),
    DDL_IMPO=(_F(GROUP_NO="PT2", DX=0.0, DY=0.0, DZ=0.0), _F(GROUP_NO="PT3", DY=0.0, DZ=0.0)),
)
FDeplT = FORMULE(
    VALE="0.25*sin(2.0*pi*INST)+0.10*sin(2.0*pi*1.5*INST)+0.10*sin(2.0*pi*3.0*INST)",
    NOM_PARA="INST",
)
pas = 1.0 / (4.0 * 10.0)
lsignal = DEFI_LIST_REEL(DEBUT=0.0, INTERVALLE=(_F(JUSQU_A=Tfin, PAS=pas),))
DeplT = CALC_FONC_INTERP(
    FONCTION=FDeplT,
    LIST_PARA=lsignal,
    NOM_PARA="INST",
    PROL_GAUCHE="CONSTANT",
    PROL_DROITE="CONSTANT",
    INTERPOL="LIN",
)
CLdepl = AFFE_CHAR_MECA_F(MODELE=modele, DDL_IMPO=(_F(GROUP_NO="PT3", DX=DeplT),))
#
ldepla = NU.array([0.00, 2.00, 5.00, 7.000, 9.500, 13.000, 16.000, 200.000]) / 10.0
lforce = NU.array([4.00, 4.00, 4.50, 4.000, 3.750, 3.500, 3.000, 3.000]) * 100.0
# Raideur constante
lraide = NU.array([2.00, 2.00, 2.00, 2.000, 2.000, 2.000, 2.000, 2.000]) * 1000.0
# Amortissement nul
lamort = NU.array([1.00, 1.00, 1.00, 0.800, 0.800, 0.700, 0.600, 0.600]) * 0.0

fctfx = DEFI_FONCTION(NOM_PARA="DX", ABSCISSE=ldepla, ORDONNEE=lforce)
fctrd = DEFI_FONCTION(NOM_PARA="DX", ABSCISSE=ldepla, ORDONNEE=lraide)
fctam = DEFI_FONCTION(NOM_PARA="DX", ABSCISSE=ldepla, ORDONNEE=lamort)

grilleac = DEFI_MATERIAU(
    INFO=2,
    DIS_CHOC_ENDO=_F(
        FX=fctfx, RIGI_NOR=fctrd, AMOR_NOR=fctam, DIST_1=0.0, DIST_2=0.0, CRIT_AMOR="INCLUS"
    ),
)

chmat = AFFE_MATERIAU(MAILLAGE=mail, AFFE=_F(GROUP_MA="GAC", MATER=grilleac))
#
# --------------------------------------------------------------------
pas1 = 0.005
l_inst1 = DEFI_LIST_REEL(DEBUT=0.0, INTERVALLE=(_F(JUSQU_A=Tfin, PAS=pas1),))

resu1 = DYNA_NON_LINE(
    MODELE=modele,
    CHAM_MATER=chmat,
    CARA_ELEM=carael,
    EXCIT=(_F(CHARGE=charge), _F(CHARGE=CLdepl)),
    COMPORTEMENT=(_F(GROUP_MA="GAC", RELATION="CHOC_ENDO"),),
    INCREMENT=_F(LIST_INST=l_inst1),
    SCHEMA_TEMPS=_F(SCHEMA="NEWMARK", FORMULATION="DEPLACEMENT"),
    CONVERGENCE=_F(RESI_REFE_RELA=5.0e-02, EFFORT_REFE=1.0),
    NEWTON=_F(REAC_INCR=1, MATRICE="TANGENTE", REAC_ITER=1),
    ARCHIVAGE=_F(LIST_INST=l_inst1),
)

# --------------------------------------------------------------------
pas2 = 0.010
l_inst2 = DEFI_LIST_REEL(DEBUT=0.0, INTERVALLE=(_F(JUSQU_A=Tfin, PAS=pas2),))

resu2 = DYNA_NON_LINE(
    MODELE=modele,
    CHAM_MATER=chmat,
    CARA_ELEM=carael,
    EXCIT=(_F(CHARGE=charge), _F(CHARGE=CLdepl)),
    COMPORTEMENT=(_F(GROUP_MA="GAC", RELATION="CHOC_ENDO"),),
    INCREMENT=_F(LIST_INST=l_inst2),
    SCHEMA_TEMPS=_F(SCHEMA="NEWMARK", FORMULATION="DEPLACEMENT"),
    CONVERGENCE=_F(RESI_REFE_RELA=5.0e-02, EFFORT_REFE=1.0),
    NEWTON=_F(REAC_INCR=1, MATRICE="TANGENTE", REAC_ITER=1),
    ARCHIVAGE=_F(LIST_INST=l_inst2),
)
#
DEPL11 = RECU_FONCTION(RESULTAT=resu1, NOM_CHAM="DEPL", NOM_CMP="DX", GROUP_NO="PT1")
FORC_1 = RECU_FONCTION(RESULTAT=resu1, NOM_CHAM="SIEF_ELGA", NOM_CMP="N", GROUP_MA="GAC", POINT=1)
PCUM_1 = RECU_FONCTION(RESULTAT=resu1, NOM_CHAM="VARI_ELGA", NOM_CMP="V1", GROUP_MA="GAC", POINT=1)
#
DEPL12 = RECU_FONCTION(RESULTAT=resu2, NOM_CHAM="DEPL", NOM_CMP="DX", GROUP_NO="PT1")
FORC_2 = RECU_FONCTION(RESULTAT=resu2, NOM_CHAM="SIEF_ELGA", NOM_CMP="N", GROUP_MA="GAC", POINT=1)
PCUM_2 = RECU_FONCTION(RESULTAT=resu2, NOM_CHAM="VARI_ELGA", NOM_CMP="V1", GROUP_MA="GAC", POINT=1)
#
# INST             DEPL              FORC              PCUM
Resultat1 = [
    1.1000000000e-01,
    8.6804086791e-02,
    0.0000000000e00,
    0.0000000000e00,
    1.4000000000e-01,
    1.4623320513e-01,
    -9.2478605109e01,
    0.0000000000e00,
    2.0000000000e-01,
    2.8109617676e-01,
    -3.6220454837e02,
    0.0000000000e00,
    2.1000000000e-01,
    3.0093325097e-01,
    -4.0017057038e02,
    8.5406320348e-04,
    3.0000000000e-01,
    3.8742136768e-01,
    -4.1455851223e02,
    8.0148208981e-02,
# ... 256 like lines cut
]
Instant = Resultat1[0::4]
Deplace = Resultat1[1::4]
Force = Resultat1[2::4]
Pcumul = Resultat1[3::4]
motclef = {}
motclef["VALEUR"] = []
for ii in range(len(Instant)):
    # Pour Force
    if abs(Force[ii]) > 1.0:
        motclef["VALEUR"].append(
            _F(FONCTION=FORC_1, NOM_PARA="INST", VALE_PARA=Instant[ii], VALE_CALC=Force[ii])
        )
    else:
        motclef["VALEUR"].append(
            _F(
                FONCTION=FORC_1,
                NOM_PARA="INST",
                VALE_PARA=Instant[ii],
                VALE_CALC=Force[ii],
                CRITERE="ABSOLU",
            )
        )
    # Pour Pcumul
    if abs(Pcumul[ii]) > 0.001:
        motclef["VALEUR"].append(
            _F(FONCTION=PCUM_1, NOM_PARA="INST", VALE_PARA=Instant[ii], VALE_CALC=Pcumul[ii])
        )
    else:
        motclef["VALEUR"].append(
            _F(
                FONCTION=PCUM_1,
                NOM_PARA="INST",
                VALE_PARA=Instant[ii],
                VALE_CALC=Pcumul[ii],
                CRITERE="ABSOLU",
            )
        )
    # Pour Deplace
    if abs(Deplace[ii]) > 0.001:
        motclef["VALEUR"].append(
            _F(FONCTION=DEPL11, NOM_PARA="INST", VALE_PARA=Instant[ii], VALE_CALC=Deplace[ii])
        )
    else:
        motclef["VALEUR"].append(
            _F(
                FONCTION=DEPL11,
                NOM_PARA="INST",
                VALE_PARA=Instant[ii],
                VALE_CALC=Deplace[ii],
                CRITERE="ABSOLU",
            )
        )
TEST_FONCTION(**motclef)
#
# INST             DEPL              FORC              PCUM
Resultat2 = [
    1.1000000000e-01,
    8.6799114482e-02,
    -1.3895122385e-14,
    0.0000000000e00,
    1.4000000000e-01,
    1.4609621068e-01,
    -9.2188349155e01,
    0.0000000000e00,
    2.0000000000e-01,
    2.8067943323e-01,
    -3.6135479426e02,
    0.0000000000e00,
    2.1000000000e-01,
    3.0049537840e-01,
    -4.0011725101e02,
    4.3471678692e-04,
    3.0000000000e-01,
    3.8711165937e-01,
    -4.1455329784e02,
    7.9832974344e-02,
# ... 256 like lines cut
]
Instant = Resultat2[0::4]
Deplace = Resultat2[1::4]
Force = Resultat2[2::4]
Pcumul = Resultat2[3::4]
motclef = {}
motclef["VALEUR"] = []
for ii in range(len(Instant)):
    # Pour Force
    if abs(Force[ii]) > 1.0:
        motclef["VALEUR"].append(
            _F(FONCTION=FORC_2, NOM_PARA="INST", VALE_PARA=Instant[ii], VALE_CALC=Force[ii])
        )
    else:
        motclef["VALEUR"].append(
            _F(
                FONCTION=FORC_2,
                NOM_PARA="INST",
                VALE_PARA=Instant[ii],
                VALE_CALC=Force[ii],
                CRITERE="ABSOLU",
            )
        )
    # Pour Pcumul
    if abs(Pcumul[ii]) > 0.001:
        motclef["VALEUR"].append(
            _F(FONCTION=PCUM_2, NOM_PARA="INST", VALE_PARA=Instant[ii], VALE_CALC=Pcumul[ii])
        )
    else:
        motclef["VALEUR"].append(
            _F(
                FONCTION=PCUM_2,
                NOM_PARA="INST",
                VALE_PARA=Instant[ii],
                VALE_CALC=Pcumul[ii],
                CRITERE="ABSOLU",
            )
        )
    # Pour Deplace
    if abs(Deplace[ii]) > 0.001:
        motclef["VALEUR"].append(
            _F(FONCTION=DEPL12, NOM_PARA="INST", VALE_PARA=Instant[ii], VALE_CALC=Deplace[ii])
        )
    else:
        motclef["VALEUR"].append(
            _F(
                FONCTION=DEPL12,
                NOM_PARA="INST",
                VALE_PARA=Instant[ii],
                VALE_CALC=Deplace[ii],
                CRITERE="ABSOLU",
            )
        )
TEST_FONCTION(**motclef)
"""
# Pour l'impression des courbes
XInstant=DEFI_LIST_REEL(VALE=Instant)
# LIST_PARA=XInstant,
#
UXAN_1=RECU_FONCTION(RESULTAT=resu1, NOM_CHAM='VARI_ELGA', NOM_CMP='V2',GROUP_MA='M1',POINT=1)
DEPL31=RECU_FONCTION(RESULTAT=resu1, NOM_CHAM='DEPL',      NOM_CMP='DX',GROUP_NO='PT3',)
VITE_1=RECU_FONCTION(RESULTAT=resu2, NOM_CHAM='VARI_ELGA', NOM_CMP='V3',GROUP_MA='M1',POINT=1)
#
UXAN_2=RECU_FONCTION(RESULTAT=resu2, NOM_CHAM='VARI_ELGA', NOM_CMP='V2',GROUP_MA='M1',POINT=1)
DEPL32=RECU_FONCTION(RESULTAT=resu2, NOM_CHAM='DEPL',      NOM_CMP='DX',GROUP_NO='PT3',)
VITE_2=RECU_FONCTION(RESULTAT=resu2, NOM_CHAM='VARI_ELGA', NOM_CMP='V3',GROUP_MA='M1',POINT=1)
#
fic_courbe = './REPE_OUT/sdnd109a_filtre_%04d.dat' % (int(pas1*1000))
unite = DEFI_FICHIER(FICHIER = fic_courbe, ACTION='ASSOCIER', TYPE='ASCII',ACCES='NEW')
IMPR_FONCTION(UNITE=unite, FORMAT='TABLEAU', SEPARATEUR=',', FORMAT_R='E17.10',
    COURBE=(
        _F(FONCTION=DEPL11, LIST_PARA=XInstant,),
        _F(FONCTION=FORC_1, LIST_PARA=XInstant,),
        _F(FONCTION=PCUM_1, LIST_PARA=XInstant,),
    ),
)
DEFI_FICHIER(UNITE = unite, ACTION='LIBERER',)
#
fic_courbe = './REPE_OUT/sdnd109a_filtre_%04d.dat' % (int(pas2*1000))
unite = DEFI_FICHIER(FICHIER = fic_courbe, ACTION='ASSOCIER', TYPE='ASCII',ACCES='NEW')
IMPR_FONCTION(UNITE=unite, FORMAT='TABLEAU', SEPARATEUR=',', FORMAT_R='E17.10',
    COURBE=(
        _F(FONCTION=DEPL12, LIST_PARA=XInstant,),
        _F(FONCTION=FORC_2, LIST_PARA=XInstant,),
        _F(FONCTION=PCUM_2, LIST_PARA=XInstant,),
    ),
)
DEFI_FICHIER(UNITE = unite, ACTION='LIBERER',)

fic_courbe = './REPE_OUT/sdnd109a_%04d.dat' % (int(pas1*1000))
unite = DEFI_FICHIER(FICHIER = fic_courbe, ACTION='ASSOCIER', TYPE='ASCII',ACCES='NEW')
IMPR_FONCTION(UNITE=unite, FORMAT='TABLEAU', SEPARATEUR=',', FORMAT_R='E17.10',
    COURBE=(
        _F(FONCTION=DEPL11,),
        _F(FONCTION=FORC_1,),
        _F(FONCTION=PCUM_1,),
        _F(FONCTION=VITE_1,),
        _F(FONCTION=UXAN_1,),
        _F(FONCTION=DEPL31,),
    ),
)
DEFI_FICHIER(UNITE = unite, ACTION='LIBERER',)
#
fic_courbe = './REPE_OUT/sdnd109a_%04d.dat' % (int(pas2*1000))
unite = DEFI_FICHIER(FICHIER = fic_courbe, ACTION='ASSOCIER', TYPE='ASCII',ACCES='NEW')
IMPR_FONCTION(UNITE=unite, FORMAT='TABLEAU', SEPARATEUR=',', FORMAT_R='E17.10',
    COURBE=(
        _F(FONCTION=DEPL12,),
        _F(FONCTION=FORC_2,),
        _F(FONCTION=PCUM_2,),
        _F(FONCTION=VITE_2,),
        _F(FONCTION=UXAN_2,),
        _F(FONCTION=DEPL32,),
    ),
)
DEFI_FICHIER(UNITE = unite, ACTION='LIBERER',)
"""
FIN()
