# coding=utf-8
# --------------------------------------------------------------------
# Copyright (C) 1991 - 2025 - EDF R&D - www.code-aster.org
# This file is part of code_aster.
#
# code_aster is free software: you can redistribute it and/or modify
# it under the terms of the GNU General Public License as published by
# the Free Software Foundation, either version 3 of the License, or
# (at your option) any later version.
#
# code_aster is distributed in the hope that it will be useful,
# but WITHOUT ANY WARRANTY; without even the implied warranty of
# MERCHANTABILITY or FITNESS FOR A PARTICULAR PURPOSE.  See the
# GNU General Public License for more details.
#
# You should have received a copy of the GNU General Public License
# along with code_aster.  If not, see <http://www.gnu.org/licenses/>.
# --------------------------------------------------------------------
#
# MODELISATION : C_PLAN
# MAILLE       : QUAD4
# ======================================================================

DEBUT(CODE="OUI", DEBUG=_F(SDVERI="OUI"))

mail = LIRE_MAILLAGE(FORMAT="MED")


mail = MODI_MAILLAGE(
    reuse=mail, MAILLAGE=mail, ORIE_PEAU=_F(GROUP_MA_PEAU=("Haut_Contact", "Bas_Contact"))
)

modele = AFFE_MODELE(
    MAILLAGE=mail, AFFE=_F(TOUT="OUI", PHENOMENE="MECANIQUE", MODELISATION=("C_PLAN",))
)

acier = DEFI_MATERIAU(ELAS=_F(E=200e9, NU=0, RHO=7800))

affe_mat = AFFE_MATERIAU(MAILLAGE=mail, AFFE=_F(TOUT="OUI", MATER=acier))

clim = AFFE_CHAR_MECA(MODELE=modele, DDL_IMPO=_F(GROUP_MA=("Encastrement",), DX=0, DY=0))


force = AFFE_CHAR_MECA(MODELE=modele, FORCE_NODALE=_F(GROUP_NO="Force", FY=-1.0e7))

# contact = NEWTON_GENERALISE
contact = DEFI_CONTACT(
    MODELE=modele,
    FORMULATION="CONTINUE",
    FROTTEMENT="COULOMB",
    ALGO_RESO_GEOM="NEWTON",
    ALGO_RESO_CONT="NEWTON",
    ALGO_RESO_FROT="NEWTON",
    ZONE=_F(
        GROUP_MA_MAIT="Haut_Contact",
        GROUP_MA_ESCL="Bas_Contact",
        CONTACT_INIT="OUI",
        COEF_FROT=2.0e7,
        COEF_CONT=2.0e9,
        SANS_GROUP_NO=("N6"),
        COULOMB=0.2,
    ),
)


res = MECA_STATIQUE(MODELE=modele, CHAM_MATER=affe_mat, EXCIT=(_F(CHARGE=clim), _F(CHARGE=force)))
IMPR_RESU(FORMAT="RESULTAT", RESU=_F(RESULTAT=res, NOM_CHAM="DEPL", GROUP_NO="Force", NOM_CMP="DY"))

rampe = DEFI_FONCTION(NOM_PARA="INST", VALE=(0.0, 1.0, 0.15, 1.0))

listinst = DEFI_LIST_REEL(DEBUT=0.0, INTERVALLE=_F(JUSQU_A=0.15, PAS=0.001))

list2 = DEFI_LIST_INST(
    METHODE="MANUEL", DEFI_LIST=_F(LIST_INST=listinst), ECHEC=_F(SUBD_PAS=2, SUBD_NIVEAU=12)
)

lfin1 = 0.012
lfin2 = 0.001
# evol1 = Newton_GENERALISE
evol1 = DYNA_NON_LINE(
    MODELE=modele,
    CHAM_MATER=affe_mat,
    EXCIT=(_F(CHARGE=clim), _F(CHARGE=force, FONC_MULT=rampe)),
    CONTACT=contact,
    COMPORTEMENT=_F(RELATION="ELAS"),
    NEWTON=_F(REAC_ITER=1),
    INCREMENT=_F(LIST_INST=list2, INST_FIN=lfin1),
    CONVERGENCE=_F(ITER_GLOB_MAXI=30, RESI_GLOB_RELA=1.0e-4),
    SOLVEUR=_F(METHODE="MUMPS", PCENT_PIVOT=250),
    SCHEMA_TEMPS=_F(SCHEMA="HHT", ALPHA=-0.3, MODI_EQUI="OUI", FORMULATION="DEPLACEMENT"),
)

# -----------couvrir C_PLAN / ECIN_ELEMIN_ELEM
tab_ecin = POST_ELEM(
    ENER_CIN=_F(GROUP_MA="Poutre"), MODELE=modele, CHAM_MATER=affe_mat, RESULTAT=evol1
)

TEST_TABLE(
    REFERENCE="ANALYTIQUE",
    PRECISION=1.0e-6,
    VALE_CALC=434861.4201976741,
    VALE_REFE=434861.420,
    NOM_PARA="TOTALE",
    TYPE_TEST="MAX",
    TABLE=tab_ecin,
)

# --------------------------------------------
TEST_RESU(
    RESU=_F(
        INST=lfin1,
        NOM_CHAM="DEPL",
        NOM_CMP="DY",
        GROUP_NO="Force",
        REFERENCE="SOURCE_EXTERNE",
        RESULTAT=evol1,
        VALE_CALC=-0.0132050023806,
        VALE_REFE=-0.03,
        CRITERE="RELATIF",
        PRECISION=60.0e-2,
    )
)


FIN()
