# coding=utf-8
# --------------------------------------------------------------------
# Copyright (C) 1991 - 2025 - EDF R&D - www.code-aster.org
# This file is part of code_aster.
#
# code_aster is free software: you can redistribute it and/or modify
# it under the terms of the GNU General Public License as published by
# the Free Software Foundation, either version 3 of the License, or
# (at your option) any later version.
#
# code_aster is distributed in the hope that it will be useful,
# but WITHOUT ANY WARRANTY; without even the implied warranty of
# MERCHANTABILITY or FITNESS FOR A PARTICULAR PURPOSE.  See the
# GNU General Public License for more details.
#
# You should have received a copy of the GNU General Public License
# along with code_aster.  If not, see <http://www.gnu.org/licenses/>.
# --------------------------------------------------------------------

DEBUT(CODE="OUI", DEBUG=_F(SDVERI="OUI"))

MAIL = LIRE_MAILLAGE(FORMAT="MED")

MAIL = DEFI_GROUP(
    reuse=MAIL,
    MAILLAGE=MAIL,
    CREA_GROUP_NO=_F(GROUP_MA=("LIG", "JOININF", "SURFACE1", "COTD", "COTSUP", "COTG", "JOINT")),
)


MAIL = MODI_MAILLAGE(reuse=MAIL, MAILLAGE=MAIL, ORIE_FISSURE=_F(GROUP_MA=("JOINT",)))

MODELE = AFFE_MODELE(
    MAILLAGE=MAIL,
    AFFE=(
        _F(GROUP_MA=("SURFACE1",), PHENOMENE="MECANIQUE", MODELISATION="D_PLAN"),
        _F(GROUP_MA=("COTD", "COTG"), PHENOMENE="MECANIQUE", MODELISATION="D_PLAN"),
        _F(GROUP_MA=("JOINT",), PHENOMENE="MECANIQUE", MODELISATION="PLAN_JOINT"),
    ),
)
T_X = DEFI_FONCTION(
    PROL_GAUCHE="CONSTANT",
    PROL_DROITE="CONSTANT",
    NOM_PARA="X",
    VALE=(
        0.0,
        10.0,
        10.0,
        10.0,
        20.0,
        20.0,
        30.0,
        30.0,
        40.0,
        40.0,
        50.0,
        50.0,
        60.0,
        60.0,
        70.0,
        70.0,
        80.0,
        80.0,
        90.0,
        90.0,
        100.0,
        100.0,
    ),
)

TEMPF = CREA_CHAMP(
    OPERATION="AFFE",
    TYPE_CHAM="NOEU_TEMP_F",
    MAILLAGE=MAIL,
    AFFE=(_F(GROUP_NO=("SURFACE1", "JOINT"), NOM_CMP=("TEMP"), VALE_F=T_X),),
)


acier = DEFI_MATERIAU(ELAS=_F(E=2.0e11, ALPHA=0.0, NU=0.3, RHO=750.00))


GC_T = DEFI_FONCTION(
    NOM_PARA="TEMP",
    VALE=(
        0.0,
        8000.0,
        10.0,
        8000.0,
        20.0,
        9600.0,
        30.0,
        11200.0,
        40.0,
        12800.0,
        50.0,
        1400.0,
        200.0,
        38400.0,
        250.0,
        38400.0,
        300.0,
        38400.0,
    ),
)

SIGM_CT = DEFI_FONCTION(
    NOM_PARA="TEMP",
    VALE=(
        0.0,
        3.0e6,
        10.0,
        3.0e6,
        20.0,
        2.4e6,
        30.0,
        2.8e6,
        40.0,
        3.2e6,
        50.0,
        3.6e6,
        200.0,
        9.6e6,
        250.0,
        9.6e6,
        300.0,
        9.6e6,
    ),
)


PENA_T = DEFI_FONCTION(
    NOM_PARA="TEMP",
    VALE=(
        0.0,
        0.0375e-3,
        10.0,
        0.0375e-3,
        20.0,
        0.03e-3,
        30.0,
        0.035e-3,
        40.0,
        0.04e-3,
        50.0,
        0.46285714285714e-3,
        200.0,
        0.12e-3,
        250.0,
        0.12e-3,
        300.0,
        0.12e-3,
    ),
)

fissmob = DEFI_MATERIAU(
    RUPT_FRAG_FO=_F(GC=GC_T, SIGM_C=SIGM_CT, PENA_ADHERENCE=PENA_T, PENA_LAGR=100.0, RIGI_GLIS=10.0)
)


FONC = DEFI_FONCTION(NOM_PARA="INST", VALE=(0.0, 0.0, 1e-02, 1.0))
#

TEMPLI = DEFI_LIST_REEL(DEBUT=0.0, INTERVALLE=_F(JUSQU_A=1e-02, NOMBRE=40))
#
EVTEMP = CREA_RESU(
    OPERATION="AFFE",
    TYPE_RESU="EVOL_THER",
    AFFE=(_F(NOM_CHAM="TEMP", LIST_INST=TEMPLI, CHAM_GD=TEMPF),),
)
charge = AFFE_CHAR_MECA(
    MODELE=MODELE,
    DDL_IMPO=(_F(GROUP_NO="N3", DY=0.0), _F(GROUP_NO="N1", DX=0.0), _F(GROUP_NO="N3", DX=0.0)),
    FORCE_NODALE=(_F(GROUP_NO="N1", FY=15.18750e8),),
    LIAISON_GROUP=(
        _F(
            GROUP_MA_1="LIG",
            GROUP_MA_2="JOININF",
            DDL_1="DX",
            COEF_MULT_1=1.0,
            DDL_2="DX",
            COEF_MULT_2=-1.0,
            COEF_IMPO=0.0,
        ),
        _F(
            GROUP_MA_1="LIG",
            GROUP_MA_2="JOININF",
            DDL_1="DY",
            COEF_MULT_1=1.0,
            DDL_2="DY",
            COEF_MULT_2=1.0,
            COEF_IMPO=0.0,
        ),
    ),
)


CHAMPMAT = AFFE_MATERIAU(
    MAILLAGE=MAIL,
    AFFE=(
        _F(GROUP_MA=("SURFACE1", "COTD", "COTG"), MATER=acier),
        _F(GROUP_MA=("JOINT"), MATER=fissmob),
    ),
    AFFE_VARC=_F(NOM_VARC="TEMP", TOUT="OUI", EVOL=EVTEMP, VALE_REF=0.0),
)

evol = DYNA_NON_LINE(
    MODELE=MODELE,
    CHAM_MATER=CHAMPMAT,
    EXCIT=(
        _F(CHARGE=charge, FONC_MULT=FONC),
        # _F(CHARGE=chartemp),
    ),
    COMPORTEMENT=(
        _F(RELATION="ELAS", GROUP_MA=("SURFACE1",)),
        _F(RELATION="CZM_EXP_REG", GROUP_MA=("JOINT",)),
    ),
    INCREMENT=_F(LIST_INST=TEMPLI),
    SCHEMA_TEMPS=_F(SCHEMA="NEWMARK", FORMULATION="DEPLACEMENT", BETA=0.25, GAMMA=0.5),
    NEWTON=_F(PREDICTION="TANGENTE", MATRICE="TANGENTE", REAC_ITER=1),
    CONVERGENCE=_F(ITER_GLOB_MAXI=150, RESI_GLOB_RELA=1e-06),
)

# **********************************************************************************
#


evol = CALC_CHAMP(reuse=evol, VARI_INTERNE=("VARI_ELNO"), RESULTAT=evol)


evol = CALC_CHAMP(reuse=evol, TOUT_ORDRE="OUI", VARI_INTERNE="VARI_NOEU", RESULTAT=evol)


#
# -------------------------
#    TEST_RESU
# -------------------------

TEST_RESU(
    RESU=(
        _F(
            INST=8.25e-3,
            RESULTAT=evol,
            NOM_CHAM="VARI_NOEU",
            GROUP_NO="N6",
            NOM_CMP="V2",
            VALE_CALC=1.0,
        ),
        _F(
            INST=8.25e-3,
            RESULTAT=evol,
            NOM_CHAM="VARI_NOEU",
            GROUP_NO="N116",
            NOM_CMP="V2",
            VALE_CALC=1.0,
        ),
        _F(
            INST=8.25e-3,
            RESULTAT=evol,
            NOM_CHAM="VARI_NOEU",
            GROUP_NO="N110",
            NOM_CMP="V2",
            VALE_CALC=1.0,
        ),
        _F(
            INST=8.25e-3,
            RESULTAT=evol,
            NOM_CHAM="VARI_NOEU",
            GROUP_NO="N106",
            NOM_CMP="V2",
            VALE_CALC=1.0,
        ),
        _F(
            INST=8.25e-3,
            RESULTAT=evol,
            NOM_CHAM="VARI_NOEU",
            GROUP_NO="N101",
            NOM_CMP="V2",
            VALE_CALC=0.0e00,
        ),
        _F(
            INST=8.25e-3,
            RESULTAT=evol,
            NOM_CHAM="VARI_NOEU",
            GROUP_NO="N6",
            NOM_CMP="V4",
            VALE_CALC=0.99828945288813,
        ),
        _F(
            INST=8.25e-3,
            RESULTAT=evol,
            NOM_CHAM="VARI_NOEU",
            GROUP_NO="N116",
            NOM_CMP="V4",
            VALE_CALC=0.85051943890842,
        ),
        _F(
            INST=8.25e-3,
            RESULTAT=evol,
            NOM_CHAM="VARI_NOEU",
            GROUP_NO="N110",
            NOM_CMP="V4",
            VALE_CALC=0.60440963680335,
        ),
        _F(
            INST=8.25e-3,
            RESULTAT=evol,
            NOM_CHAM="VARI_NOEU",
            GROUP_NO="N106",
            NOM_CMP="V4",
            VALE_CALC=0.26016778211900,
        ),
        _F(
            INST=8.25e-3,
            RESULTAT=evol,
            NOM_CHAM="VARI_NOEU",
            GROUP_NO="N101",
            NOM_CMP="V4",
            VALE_CALC=2.1699357012437e-04,
        ),
    )
)

FIN()
