# coding=utf-8
# --------------------------------------------------------------------
# Copyright (C) 1991 - 2025 - EDF R&D - www.code-aster.org
# This file is part of code_aster.
#
# code_aster is free software: you can redistribute it and/or modify
# it under the terms of the GNU General Public License as published by
# the Free Software Foundation, either version 3 of the License, or
# (at your option) any later version.
#
# code_aster is distributed in the hope that it will be useful,
# but WITHOUT ANY WARRANTY; without even the implied warranty of
# MERCHANTABILITY or FITNESS FOR A PARTICULAR PURPOSE.  See the
# GNU General Public License for more details.
#
# You should have received a copy of the GNU General Public License
# along with code_aster.  If not, see <http://www.gnu.org/licenses/>.
# --------------------------------------------------------------------

DEBUT(CODE="OUI", DEBUG=_F(SDVERI="OUI"))
# MIS EN EAU DU BARRAGE 2D, OU LE JOINT EST MODELISE PAR LA LOI DE FROTTEMENT
######## PARAMETRES #############
tfin = 4.0

# PARAMETRES MECANIQUES DU BARRAGE DE LA TERRE ET DE L'EAU (VALEURS TESTS)
young = 3.0e12
poiss = 0.25
rho_b = 2400.0
rho_t = 0.0
rho_e = 1000.0
ap = 9.81
h = 10.0
length = 5.0

# NIVEAU D'EAU
niv_am = DEFI_FONCTION(NOM_PARA="INST", NOM_RESU="NRT_AM", VALE=(0, 0, 1, 3, 2, 6, 3, 8, 4, 9))
niv_av = DEFI_FONCTION(NOM_PARA="INST", NOM_RESU="NRT_AV", VALE=(0, 0, 1, 0, 2, 0, 3, 0, 4, 0))

# PARAMETRES MECANIQUES DES JOINTS
k_n = 1e12
k_t = 2 * k_n
# JOINT FROTTEMENT
mu = 0.35
adhe = 1000.0
ecrouissage = k_t * 0.1

pres_ent = FORMULE(
    VALE="rho_e*ap*(niv_am(INST))", rho_e=rho_e, ap=ap, niv_am=niv_am, NOM_PARA="INST"
)
pres_sor = FORMULE(VALE="0.0", NOM_PARA="INST")

# PRESSION IMPOSEE DANS LE JOINT (LINEAIRE)
f_flu = FORMULE(
    NOM_PARA=("X", "Y", "INST"),
    VALE="(1/length)*(pres_sor(INST) - pres_ent(INST))*X + pres_ent(INST)",
    length=length,
    pres_ent=pres_ent,
    pres_sor=pres_sor,
)


##################################
# LECTURE DU MAILLAGE, OU LE JOINT EST PRESENTE PAR DEUX LEVRES MAILLES IDENTIQUEMENT
MA_TMP = LIRE_MAILLAGE(FORMAT="MED")


# IL EST IMPORTANT D'ORDONNER LES GROUPES DE NOEUDS, QUI PRESENTE LES LEVRES DU JOINT
MA_TMP = DEFI_GROUP(
    reuse=MA_TMP,
    MAILLAGE=MA_TMP,
    CREA_GROUP_NO=(
        _F(GROUP_MA="JOINT_H", OPTION="NOEUD_ORDO", NOM="JOINT_H"),
        _F(GROUP_MA="JOINT_B", OPTION="NOEUD_ORDO", NOM="JOINT_B"),
    ),
)

# LE NOUVEUA MAILLAGE EST CREE, LA OU LE JOINT EST DEJA MAILLE
MA_TMP1 = CREA_MAILLAGE(
    MAILLAGE=MA_TMP, CREA_FISS=_F(NOM="JOINT", GROUP_NO_2="JOINT_H", GROUP_NO_1="JOINT_B")
)

groupma = [
    "BARRAGE",
    "TERRE",
    "BAR_AVAL",
    "BAR_AMON",
    "BAR_HAUT",
    "JOINT_H",
    "TERRE_BO",
    "TERRE_AV",
    "TERRE_AM",
    "JOINT_B",
]

MA = CREA_MAILLAGE(
    MAILLAGE=MA_TMP1,
    LINE_QUAD=_F(
        TOUT="OUI",
        #                GROUP_MA = groupma,
    ),
)


MA = MODI_MAILLAGE(
    reuse=MA, MAILLAGE=MA, ORIE_PEAU=_F(GROUP_MA_PEAU=("BAR_AMON", "BAR_AVAL")), INFO=1
)

MA = MODI_MAILLAGE(reuse=MA, MAILLAGE=MA, ORIE_FISSURE=_F(GROUP_MA="JOINT"), INFO=1)

MA = DEFI_GROUP(reuse=MA, MAILLAGE=MA, CREA_GROUP_NO=(_F(GROUP_MA="JOINT"),))


MO = AFFE_MODELE(
    MAILLAGE=MA,
    AFFE=(
        _F(
            GROUP_MA=("BARRAGE", "TERRE", "BAR_AMON", "BAR_AVAL"),
            PHENOMENE="MECANIQUE",
            MODELISATION="D_PLAN",
        ),
        _F(GROUP_MA="JOINT", PHENOMENE="MECANIQUE", MODELISATION="PLAN_JOINT_HYME"),
    ),
)

# MATERIAU BETON ET TERRE
MAT_B = DEFI_MATERIAU(ELAS=_F(E=young, NU=poiss, RHO=rho_b))

MAT_T = DEFI_MATERIAU(ELAS=_F(E=young, NU=poiss, RHO=rho_t))


# MATERIAU JOINT MECANIQUE AVEC FROTTEMENT ET PRESSION DE FLUIDE
MAT_JF = DEFI_MATERIAU(
    JOINT_MECA_FROT=_F(
        K_N=k_n,
        K_T=k_t,
        PENA_TANG=ecrouissage,
        MU=mu,
        ADHESION=adhe,
        #                                     PRES_FLUIDE=f_flu,
        RHO_FLUIDE=1000.0,
        VISC_FLUIDE=1.0e-3,  # 1E6,
        OUV_MIN=5.0e-8,  # 1,
    )
)


CM_F = AFFE_MATERIAU(
    MAILLAGE=MA,
    AFFE=(
        _F(GROUP_MA="BARRAGE", MATER=MAT_B),
        _F(GROUP_MA="TERRE", MATER=MAT_T),
        _F(GROUP_MA="JOINT", MATER=MAT_JF),
    ),
)

# CONDITION AUX LIMITES SUR LA TERRE
TERRE = AFFE_CHAR_MECA(MODELE=MO, FACE_IMPO=_F(GROUP_MA="TERRE_BO", DX=0.0, DY=0.0))

# POIDS
PESBAR = AFFE_CHAR_MECA(MODELE=MO, FORCE_INTERNE=(_F(GROUP_MA="BARRAGE", FX=0, FY=-rho_b * ap)))
PESTER = AFFE_CHAR_MECA(MODELE=MO, FORCE_INTERNE=(_F(GROUP_MA="TERRE", FX=0, FY=-rho_t * ap)))

# PRESSION D'EAU SUR LE BARRAGE
p_am = FORMULE(
    VALE="max(rho_e*ap*(niv_am(INST)-Y),0)",
    NOM_PARA=("Y", "INST"),
    rho_e=rho_e,
    ap=ap,
    niv_am=niv_am,
)
p_av = FORMULE(
    VALE="max(rho_e*ap*(niv_av(INST)-Y),0)",
    NOM_PARA=("Y", "INST"),
    rho_e=rho_e,
    ap=ap,
    niv_av=niv_av,
)

PAMONT = AFFE_CHAR_MECA_F(MODELE=MO, PRES_REP=_F(GROUP_MA=("BAR_AMON",), PRES=p_am))
PAVAL = AFFE_CHAR_MECA_F(MODELE=MO, PRES_REP=_F(GROUP_MA=("BAR_AVAL",), PRES=p_av))

P_0p = AFFE_CHAR_CINE(MODELE=MO, MECA_IMPO=(_F(GROUP_NO=("JOINT"), PRE1=0),))

# LISTE D'INSTANTS
LR = DEFI_LIST_REEL(DEBUT=0.0, INTERVALLE=(_F(JUSQU_A=3, NOMBRE=3), _F(JUSQU_A=tfin, NOMBRE=2)))
L_INST = DEFI_LIST_INST(
    DEFI_LIST=_F(LIST_INST=LR), ECHEC=_F(SUBD_NIVEAU=6, SUBD_PAS=10, SUBD_PAS_MINI=1.0e-10)
)


# CALCUL MECANIQUE AVEC FROTTEMENT
U_F = STAT_NON_LINE(
    MODELE=MO,
    CHAM_MATER=CM_F,
    EXCIT=(
        _F(CHARGE=TERRE),
        _F(CHARGE=PESBAR),
        _F(CHARGE=PESTER),
        _F(CHARGE=PAMONT),
        _F(CHARGE=PAVAL),
        _F(CHARGE=P_0p),
    ),
    COMPORTEMENT=(
        _F(RELATION="JOINT_MECA_FROT", GROUP_MA="JOINT"),
        _F(RELATION="ELAS", GROUP_MA=("TERRE", "BARRAGE")),
    ),
    INCREMENT=_F(LIST_INST=L_INST, INST_FIN=tfin),
    NEWTON=_F(MATRICE="TANGENTE", REAC_ITER=1),
    RECH_LINEAIRE=_F(ITER_LINE_MAXI=5),
    CONVERGENCE=_F(ITER_GLOB_MAXI=12, RESI_GLOB_RELA=1e-5),
    SOLVEUR=_F(METHODE="MUMPS"),
    ARCHIVAGE=_F(LIST_INST=LR),
)


################### POST TRAITEMENT U_F  #######################

U_F = CALC_CHAMP(reuse=U_F, RESULTAT=U_F, VARI_INTERNE=("VARI_ELNO"), GROUP_MA="JOINT")

U_F = CALC_CHAMP(reuse=U_F, RESULTAT=U_F, CONTRAINTE=("SIEF_ELNO"), GROUP_MA="JOINT")

U_F = CALC_CHAMP(
    reuse=U_F, RESULTAT=U_F, VARI_INTERNE="VARI_NOEU", CONTRAINTE="SIEF_NOEU", GROUP_MA="JOINT"
)

# SAUT NORMALE DANS LE JOINT (via VI)
SAUT_F = POST_RELEVE_T(
    ACTION=_F(
        OPERATION="EXTRACTION",
        INTITULE="SAUT_N",
        RESULTAT=U_F,
        NOM_CHAM="VARI_NOEU",
        INST=tfin,
        GROUP_NO=("JOINT_H",),
        NOM_CMP="V7",
    )
)

# SAUT TANGENTIEL DANS LE JOINT (via DEPL)
SAUT_X = POST_RELEVE_T(
    ACTION=_F(
        OPERATION="EXTRACTION",
        INTITULE="DEPL_X",
        RESULTAT=U_F,
        NOM_CHAM="DEPL",
        INST=tfin,
        GROUP_NO=("JOINT_H"),
        NOM_CMP="DX",
    )
)

# CONTRAINTE NORMALE DANS LE JOINT
SIGN_F = POST_RELEVE_T(
    ACTION=_F(
        OPERATION="EXTRACTION",
        INTITULE="SIG_N",
        RESULTAT=U_F,
        NOM_CHAM="SIEF_NOEU",
        INST=tfin,
        GROUP_NO=("JOINT_H",),
        NOM_CMP="SIGN",
    )
)


################### TESTS U_F  NON REGRESSION #######################


TEST_TABLE(
    VALE_CALC=-8.999408421761776e-08,
    NOM_PARA="V7",
    TABLE=SAUT_F,
    FILTRE=_F(NOM_PARA="COOR_X", VALE=1.3),
)

TEST_TABLE(
    VALE_CALC=-89994.08421761777,
    NOM_PARA="SIGN",
    TABLE=SIGN_F,
    FILTRE=_F(NOM_PARA="COOR_X", VALE=1.3),
)

TEST_TABLE(
    VALE_CALC=-1.8203913247911803e-07,
    NOM_PARA="V7",
    TABLE=SAUT_F,
    FILTRE=_F(NOM_PARA="COOR_X", VALE=3.2),
)

TEST_TABLE(
    VALE_CALC=-182039.13247911804,
    NOM_PARA="SIGN",
    TABLE=SIGN_F,
    FILTRE=_F(NOM_PARA="COOR_X", VALE=3.2),
)

TEST_TABLE(
    VALE_CALC=-2.786425816753554e-07,
    NOM_PARA="V7",
    TABLE=SAUT_F,
    FILTRE=_F(NOM_PARA="COOR_X", VALE=4.6),
)

TEST_TABLE(
    VALE_CALC=-278642.5816753554,
    NOM_PARA="SIGN",
    TABLE=SIGN_F,
    FILTRE=_F(NOM_PARA="COOR_X", VALE=4.6),
)


FIN()
