# coding=utf-8
# --------------------------------------------------------------------
# Copyright (C) 1991 - 2025 - EDF R&D - www.code-aster.org
# This file is part of code_aster.
#
# code_aster is free software: you can redistribute it and/or modify
# it under the terms of the GNU General Public License as published by
# the Free Software Foundation, either version 3 of the License, or
# (at your option) any later version.
#
# code_aster is distributed in the hope that it will be useful,
# but WITHOUT ANY WARRANTY; without even the implied warranty of
# MERCHANTABILITY or FITNESS FOR A PARTICULAR PURPOSE.  See the
# GNU General Public License for more details.
#
# You should have received a copy of the GNU General Public License
# along with code_aster.  If not, see <http://www.gnu.org/licenses/>.
# --------------------------------------------------------------------

#####################################################################################
# CODE_ASTER COMMANDS FILE AUTOMATICALLY GENERATED BY PI, SALOME_MECA PIPING MODULE
#####################################################################################
DEBUT(CODE="OUI")
#
# MESH AND FE-MODEL DEFINITIONS ##########
MESH = LIRE_MAILLAGE(FORMAT="MED")
MESH = MODI_MAILLAGE(
    reuse=MESH,
    MAILLAGE=MESH,
    ECHELLE=1.0e-3,
    # ABSC_CURV = _F(NOEUD_ORIG = 'PT_5',
    #               GROUP_MA   = ['BEAM_PT_10', 'BEAM_PT_20', 'BEAM_PT_30', 'BEAM_PT_40'])
)
#
#
MODEL = AFFE_MODELE(
    MAILLAGE=MESH,
    AFFE=(
        _F(
            GROUP_MA=["BEAM_PT_10", "BEAM_PT_20", "BEAM_PT_30", "BEAM_PT_40"],
            PHENOMENE="MECANIQUE",
            MODELISATION="POU_D_T",
        ),
    ),
)
#
# MATERIAL DEFINITIONS ##########
#
# MAT_1 : MAT_1 (Elastic (temperature-dependant))
D1 = DEFI_CONSTANTE(VALE=520.0)
#
E1 = DEFI_FONCTION(
    NOM_PARA="TEMP",
    PROL_DROITE="CONSTANT",
    PROL_GAUCHE="CONSTANT",
    VALE=(21.1, 2.1e11, 21.101, 2.1e11),
)
#
V1 = DEFI_FONCTION(
    NOM_PARA="TEMP", PROL_DROITE="CONSTANT", PROL_GAUCHE="CONSTANT", VALE=(21.1, 0.3, 21.101, 0.3)
)
#
A1 = DEFI_FONCTION(
    NOM_PARA="TEMP", PROL_DROITE="CONSTANT", PROL_GAUCHE="CONSTANT", VALE=(21.1, 0, 21.101, 0)
)
#
MAT_1 = DEFI_MATERIAU(ELAS_FO=_F(RHO=D1, E=E1, NU=V1, ALPHA=A1, TEMP_DEF_ALPHA=20.0))
#
# TEMPERATURE FIELD ##########
TEMP_IMP = CREA_CHAMP(
    MODELE=MODEL,
    TYPE_CHAM="CART_TEMP_R",
    OPERATION="AFFE",
    AFFE=(
        _F(
            GROUP_MA=["BEAM_PT_10", "BEAM_PT_20", "BEAM_PT_30", "BEAM_PT_40"],
            NOM_CMP="TEMP",
            VALE=21.1,
        ),
        _F(
            GROUP_MA=["BEAM_PT_10", "BEAM_PT_20", "BEAM_PT_30", "BEAM_PT_40"],
            NOM_CMP="TEMP",
            VALE=20.0,
        ),
    ),
)
#
# ASSIGNING MATERIAL TO ELEMENTS ##########
MATER_F = AFFE_MATERIAU(
    MAILLAGE=MESH,
    AFFE=(_F(GROUP_MA=["BEAM_PT_10", "BEAM_PT_20", "BEAM_PT_30", "BEAM_PT_40"], MATER=MAT_1),),
    # THERMAL EXPANSION
    AFFE_VARC=(_F(TOUT="OUI", NOM_VARC="TEMP", VALE_REF=20.0, CHAM_GD=TEMP_IMP),),
)
#
# FINITE ELEMENTS CARACTERISTICS (DIAMETER, THICKNESS) ##########
FE_CAR = AFFE_CARA_ELEM(
    MODELE=MODEL,
    POUTRE=(
        _F(
            GROUP_MA=["BEAM_PT_10", "BEAM_PT_20", "BEAM_PT_30", "BEAM_PT_40"],
            SECTION="GENERALE",
            CARA=("A", "IY", "IZ", "JX", "AY", "AZ"),
            VALE=(
                1000.0 * 1.0e-6,
                100000000000.0 * 1.0e-12,
                17000.0 * 1.0e-12,
                200000000000.0 * 1.0e-12,
                1e-20,
                1e-20,
            ),
        ),
    ),
    COQUE=(),
    ORIENTATION=(),
    DISCRET=(),
)
#
# MECHANICAL BOUNDARY CONDITIONS ##########
BOUND_C = AFFE_CHAR_MECA(
    MODELE=MODEL,
    DDL_IMPO=(
        _F(GROUP_NO="ANCH_PT_5", LIAISON="ENCASTRE"),
        _F(GROUP_NO="ANCH_PT_40", LIAISON="ENCASTRE"),
    ),
    DDL_POUTRE=(),
    LIAISON_DDL=(),
    # THERMAL STRATIFICATION (FANNY)
    PRE_EPSI=(
        # KY and KZ are exchanged because of the local axis chosen (local Y and local Z are axchanged)
    ),
)
#
# EXTERNAL FORCES AND CHARGING #############
#
# chargement lineique
FOR_UNI = AFFE_CHAR_MECA(
    MODELE=MODEL, FORCE_POUTRE=_F(TOUT="OUI", TYPE_CHARGE="FORCE", FX=0.0, FY=-24000.0, FZ=0.0)
)
#
# FOR_4 : FORC_PT_10_CA_1 (Force)
FOR_4 = AFFE_CHAR_MECA(
    MODELE=MODEL, FORCE_NODALE=_F(GROUP_NO="FORC_PT_10_CA_1", FX=30000.0, FY=0.0, FZ=0.0)
)

#
# FOR_6 : FORC_PT_30_CA_1 (Force)
FOR_6 = AFFE_CHAR_MECA(
    MODELE=MODEL, FORCE_NODALE=_F(GROUP_NO="FORC_PT_30_CA_1", FX=10000.0, FY=-20000.0, FZ=0.0)
)

#
# FOR_8 : MOMT_PT_5_CA_1 (Moment)
FOR_8 = AFFE_CHAR_MECA(
    MODELE=MODEL, FORCE_NODALE=_F(GROUP_NO="MOMT_PT_5_CA_1", MX=0.0, MY=0.0, MZ=-180.0)
)
#
# FOR_9 : MOMT_PT_10_CA_1 (Moment)
FOR_9 = AFFE_CHAR_MECA(
    MODELE=MODEL, FORCE_NODALE=_F(GROUP_NO="MOMT_PT_10_CA_1", MX=0.0, MY=0.0, MZ=-2900.0)
)
#
# FOR_10 : MOMT_PT_30_CA_1 (Moment)
FOR_10 = AFFE_CHAR_MECA(
    MODELE=MODEL, FORCE_NODALE=_F(GROUP_NO="MOMT_PT_30_CA_1", MX=0.0, MY=0.0, MZ=-100.0)
)
#
# FOR_11 : MOMT_PT_40_CA_1 (Moment)
FOR_11 = AFFE_CHAR_MECA(
    MODELE=MODEL, FORCE_NODALE=_F(GROUP_NO="MOMT_PT_40_CA_1", MX=0.0, MY=0.0, MZ=180.0)
)
#
# DFOR_1 : GRAVITY (Gravity / Constant acceleration)
DFOR_1 = AFFE_CHAR_MECA(
    MODELE=MODEL,
    PESANTEUR=_F(
        GROUP_MA=["BEAM_PT_10", "BEAM_PT_20", "BEAM_PT_30", "BEAM_PT_40"],
        GRAVITE=9.81,
        DIRECTION=(0.0, -1.0, 0.0),
    ),
)
#
# LINEAR STATIC SOLVER ####################
STATIC = MECA_STATIQUE(
    MODELE=MODEL,
    CHAM_MATER=MATER_F,
    CARA_ELEM=FE_CAR,
    EXCIT=(
        _F(CHARGE=BOUND_C),
        _F(CHARGE=FOR_4),
        _F(CHARGE=FOR_6),
        _F(CHARGE=FOR_8),
        _F(CHARGE=FOR_9),
        _F(CHARGE=FOR_10),
        _F(CHARGE=FOR_11),
        # _F(CHARGE    = DFOR_1,),
        _F(CHARGE=FOR_UNI),
    ),
    SOLVEUR=_F(RESI_RELA=1e-06, NPREC=-1),
)
#
# EXTRA FIELD CALCULATIONS FROM THE RESULT AND THE FE-MODEL #########
elem_groups = ["BEAM_PT_10", "BEAM_PT_20", "BEAM_PT_30", "BEAM_PT_40"]
pts_groups = [
    "PT_5",
    "PT_10",
    "PT_20",
    "PT_30",
    "PT_40",
    "ANCH_PT_5",
    "ANCH_PT_40",
    "FORC_PT_5_CA_1",
    "FORC_PT_10_CA_1",
    "FORC_PT_20_CA_1",
    "FORC_PT_30_CA_1",
    "FORC_PT_40_CA_1",
    "MOMT_PT_5_CA_1",
    "MOMT_PT_10_CA_1",
    "MOMT_PT_30_CA_1",
    "MOMT_PT_40_CA_1",
]
MESH = DEFI_GROUP(reuse=MESH, MAILLAGE=MESH, CREA_GROUP_NO=_F(NOM="ALL_PTS", UNION=pts_groups))
# calculer les efforts et reactions
STATIC = CALC_CHAMP(
    reuse=STATIC,
    RESULTAT=STATIC,
    MODELE=MODEL,
    CHAM_MATER=MATER_F,
    CARA_ELEM=FE_CAR,
    GROUP_MA=elem_groups,
    # TOUT       = 'OUI',
    CONTRAINTE=("EFGE_NOEU"),
    FORCE=("REAC_NODA",),
)
IMPR_RESU(
    FORMAT="RESULTAT",
    UNITE=8,
    RESU=_F(
        RESULTAT=STATIC,
        NOM_CHAM="EFGE_NOEU",
        # FORM_TABL = 'EXCEL',
        # NOM_CMP   = ('DX','DY','DZ'),
        GROUP_NO=("MOMT_PT_5_CA_1", "FORC_PT_20_CA_1"),
        # IMPR_COOR = 'OUI',
    ),
)
# TEST DEPL
TEST_RESU(
    RESU=(
        _F(
            NUME_ORDRE=1,
            NOM_CHAM="DEPL",
            NOM_CMP="DY",
            GROUP_NO="FORC_PT_20_CA_1",
            RESULTAT=STATIC,
            VALE_CALC=-0.04817927170868232,
            VALE_REFE=-0.049,
            REFERENCE="SOURCE_EXTERNE",
            CRITERE="RELATIF",
            PRECISION=1.674956e00 / 100.0,
        ),
    )
)
# TEST efforts et reaction
TEST_RESU(
    RESU=(
        _F(
            NUME_ORDRE=1,
            NOM_CHAM="EFGE_NOEU",
            NOM_CMP="VY",
            GROUP_NO="FORC_PT_20_CA_1",
            GROUP_MA="BEAM_PT_20",
            RESULTAT=STATIC,
            VALE_CALC=-540.0000000000655,
            VALE_REFE=-540,
            REFERENCE="SOURCE_EXTERNE",
            CRITERE="RELATIF",
            # PRECISION=3.637981E-11/100.,
        ),
        _F(
            NUME_ORDRE=1,
            NOM_CHAM="EFGE_NOEU",
            NOM_CMP="MFZ",
            GROUP_NO="FORC_PT_20_CA_1",
            GROUP_MA="BEAM_PT_20",
            RESULTAT=STATIC,
            VALE_CALC=2739.9999999999227,
            VALE_REFE=2800,
            REFERENCE="SOURCE_EXTERNE",
            CRITERE="RELATIF",
            PRECISION=2.142860e00 / 100.0,
        ),
        _F(
            NUME_ORDRE=1,
            NOM_CHAM="REAC_NODA",
            NOM_CMP="DX",
            GROUP_NO="MOMT_PT_5_CA_1",
            GROUP_MA="BEAM_PT_10",
            RESULTAT=STATIC,
            VALE_CALC=-24000.000000000004,
            VALE_REFE=-24000,
            REFERENCE="SOURCE_EXTERNE",
            CRITERE="RELATIF",
            # PRECISION=3.031650E-14/100.,
        ),
    )
)

#
FIN()
