# coding=utf-8
# --------------------------------------------------------------------
# Copyright (C) 1991 - 2025 - EDF R&D - www.code-aster.org
# This file is part of code_aster.
#
# code_aster is free software: you can redistribute it and/or modify
# it under the terms of the GNU General Public License as published by
# the Free Software Foundation, either version 3 of the License, or
# (at your option) any later version.
#
# code_aster is distributed in the hope that it will be useful,
# but WITHOUT ANY WARRANTY; without even the implied warranty of
# MERCHANTABILITY or FITNESS FOR A PARTICULAR PURPOSE.  See the
# GNU General Public License for more details.
#
# You should have received a copy of the GNU General Public License
# along with code_aster.  If not, see <http://www.gnu.org/licenses/>.
# --------------------------------------------------------------------
#
# person_in_charge: jean-luc.flejou at edf.fr
#

DEBUT(CODE="OUI", DEBUG=_F(SDVERI="OUI"))

import math


def TuyauFibre(Rext, ep, NbCouche=5, NbSecteur=4, AngleVrille=0.0):
    # Angle de vrille en Radian
    al = AngleVrille * math.pi / 180.0
    # Nombre de secteur total
    NbSecteurTotal = NbSecteur * 4
    # Section totale
    Section = math.pi * (Rext * Rext - (Rext - ep) * (Rext - ep))
    # Section d'une fibre
    Sfibre = Section / ((2 * NbCouche + 1) * (2 * NbSecteurTotal + 1))
    # Rayon min
    Rayon1 = Rext - ep
    Fibres = []
    for icou in range(2 * NbCouche + 1):
        Ra = Rayon1 + icou * ep / (2.0 * NbCouche)
        for isec in range(2 * NbSecteurTotal + 1):
            tet = isec * math.pi / NbSecteurTotal
            Fibres += [Ra * math.cos(tet + al), Ra * math.sin(tet + al), Sfibre]
    #
    return Fibres


MAIL = LIRE_MAILLAGE(UNITE=20, FORMAT="MED", INFO=2)

MAIL = MODI_MAILLAGE(reuse=MAIL, MAILLAGE=MAIL, ABSC_CURV=_F(TOUT="OUI", GROUP_NO_ORIG="ENC"))

MAT = DEFI_MATERIAU(ELAS=_F(E=2.0e11, NU=0.3, RHO=7800.0))

L_INIT = DEFI_LIST_REEL(DEBUT=0.0, INTERVALLE=_F(JUSQU_A=1, NOMBRE=2))
FOMULT = DEFI_FONCTION(NOM_PARA="INST", VALE=(0.0, 0.0, 1.0, 1.0))

# Force en CHG dans le repère initial
Fx = -1000.0
Fy = 5000.0
Fz = 10000.0
Mx = 830.0
My = 1800.0
Mz = 5300.0
# Longueur
L = 1.5
ax = 0
ay = 1
az = 2

# Solution RDM dans le repère initial
Faloc_1 = [Fx, Fy, Fz]
Maloc_1 = [Mx + 3 * Fz * L, My - 2 * Fz * L, Mz + 2 * Fy * L - 3 * Fx * L]
Fbloc_1 = [Fx, Fy, Fz]
Mbloc_1 = [Mx + 3 * Fz * L, My - Fz * L, Mz + Fy * L - 3 * Fx * L]

Fbloc_2 = [(Fy + Fx) / sqrt(2), (Fy - Fx) / sqrt(2), Fz]
Mbloc_2 = [
    (My + Mx + 2 * Fz * L) / sqrt(2),
    (My - Mx - 4 * Fz * L) / sqrt(2),
    (Mz + Fy * L - 3 * Fx * L),
]
Fcloc_2 = [(Fy + Fx) / sqrt(2), (Fy - Fx) / sqrt(2), Fz]
Mcloc_2 = [(My + Mx + 2 * Fz * L) / sqrt(2), (My - Mx - 2 * Fz * L) / sqrt(2), Mz - 2 * Fx * L]

Fcloc_3 = [Fy, -Fx, Fz]
Mcloc_3 = [My, (-Mx - 2 * Fz * L), (Mz - 2 * Fx * L)]
Fdloc_3 = [Fy, -Fx, Fz]
Mdloc_3 = [My, -Mx, Mz]

# Changement de repère des efforts
Fxr = (0.6942720440 * Fx) + (-0.6438648260 * Fy) + (-0.3215966648 * Fz)
Fyr = (0.3237443710 * Fx) + (0.6784690681 * Fy) + (-0.6594462116 * Fz)
Fzr = (0.6427876097 * Fx) + (0.3537199593 * Fy) + (0.6794897197 * Fz)
Mxr = (0.6942720440 * Mx) + (-0.6438648260 * My) + (-0.3215966648 * Mz)
Myr = (0.3237443710 * Mx) + (0.6784690681 * My) + (-0.6594462116 * Mz)
Mzr = (0.6427876097 * Mx) + (0.3537199593 * My) + (0.6794897197 * Mz)
cara_motclefs = {}
cara_motclefs["ORIENTATION"] = [
    _F(GROUP_MA="M01", CARA="VECT_Y", VALE=(-0.6438648260, 0.6784690681, 0.3537199593)),
    _F(GROUP_MA="M02", CARA="VECT_Y", VALE=(-0.9462056549, 0.2508282388, -0.2044016958)),
    _F(GROUP_MA="M03", CARA="VECT_Y", VALE=(-0.6942720440, -0.3237443710, -0.6427876097)),
]

for modele in ["POU_D_T", "POU_D_E", "POU_D_EM", "POU_D_TGM", "POU_D_TG"]:
    ModeleP = AFFE_MODELE(
        MAILLAGE=MAIL, AFFE=_F(TOUT="OUI", PHENOMENE="MECANIQUE", MODELISATION=modele)
    )

    stnl_motclefs = {}
    if modele in ["POU_D_TGM", "POU_D_EM"]:
        Fibres = DEFI_GEOM_FIBRE(
            FIBRE=_F(
                GROUP_FIBRE="SACIER",
                CARA="SURFACE",
                COOR_AXE_POUTRE=(0.0, 0.0),
                VALE=TuyauFibre(0.10, 0.05, NbCouche=3, NbSecteur=2),
            )
        )

        CaraP = AFFE_CARA_ELEM(
            MODELE=ModeleP,
            POUTRE=(_F(SECTION="CERCLE", GROUP_MA="TOUT", CARA=("R", "EP"), VALE=(0.10, 0.05)),),
            GEOM_FIBRE=Fibres,
            MULTIFIBRE=_F(GROUP_MA=("TOUT"), GROUP_FIBRE=("SACIER",), PREC_INERTIE=1.2e-01),
            **cara_motclefs
        )

        compor = DEFI_COMPOR(
            GEOM_FIBRE=Fibres,
            MATER_SECT=MAT,
            MULTIFIBRE=_F(GROUP_FIBRE="SACIER", MATER=MAT, RELATION="ELAS"),
        )

        CHMAT = AFFE_MATERIAU(
            MAILLAGE=MAIL,
            AFFE=_F(TOUT="OUI", MATER=MAT),
            AFFE_COMPOR=_F(GROUP_MA="TOUT", COMPOR=compor),
        )
        stnl_motclefs["COMPORTEMENT"] = [_F(RELATION="MULTIFIBRE")]
    else:
        CaraP = AFFE_CARA_ELEM(
            MODELE=ModeleP,
            POUTRE=(_F(SECTION="CERCLE", GROUP_MA="TOUT", CARA=("R", "EP"), VALE=(0.10, 0.05)),),
            **cara_motclefs
        )
        CHMAT = AFFE_MATERIAU(MAILLAGE=MAIL, AFFE=_F(TOUT="OUI", MATER=MAT))
        stnl_motclefs["COMPORTEMENT"] = [_F(TOUT="OUI", RELATION="ELAS", DEFORMATION="PETIT")]
    #
    BLOCAGE = AFFE_CHAR_MECA(
        MODELE=ModeleP,
        DDL_IMPO=_F(GROUP_NO="ENC", DX=0.0, DY=0.0, DZ=0.0, DRX=0.0, DRY=0.0, DRZ=0.0),
        FORCE_NODALE=_F(GROUP_NO="CHG", FX=Fxr, FY=Fyr, FZ=Fzr, MX=Mxr, MY=Myr, MZ=Mzr),
    )

    Titre = "Modele %s" % modele
    ResPDT = STAT_NON_LINE(
        MODELE=ModeleP,
        CHAM_MATER=CHMAT,
        CARA_ELEM=CaraP,
        EXCIT=_F(CHARGE=BLOCAGE, FONC_MULT=FOMULT),
        INCREMENT=_F(LIST_INST=L_INIT),
        CONVERGENCE=_F(RESI_GLOB_RELA=1.0e-07),
        TITRE=Titre,
        **stnl_motclefs
    )

    ResPDT = CALC_CHAMP(
        reuse=ResPDT,
        MODELE=ModeleP,
        RESULTAT=ResPDT,
        TOUT_ORDRE="OUI",
        CHAM_MATER=CHMAT,
        CARA_ELEM=CaraP,
        CONTRAINTE=("EFGE_ELNO"),
    )

    TEST_RESU(
        RESU=(
            # Maille M01, noeud 1
            _F(
                RESULTAT=ResPDT,
                NOM_CHAM="EFGE_ELNO",
                INST=1.0,
                GROUP_MA="M01",
                POINT=1,
                REFERENCE="ANALYTIQUE",
                NOM_CMP="N",
                VALE_CALC=Faloc_1[ax],
                VALE_REFE=Faloc_1[ax],
            ),
            _F(
                RESULTAT=ResPDT,
                NOM_CHAM="EFGE_ELNO",
                INST=1.0,
                GROUP_MA="M01",
                POINT=1,
                REFERENCE="ANALYTIQUE",
                NOM_CMP="VY",
                VALE_CALC=Faloc_1[ay],
                VALE_REFE=Faloc_1[ay],
            ),
            _F(
                RESULTAT=ResPDT,
                NOM_CHAM="EFGE_ELNO",
                INST=1.0,
                GROUP_MA="M01",
                POINT=1,
                REFERENCE="ANALYTIQUE",
                NOM_CMP="VZ",
                VALE_CALC=Faloc_1[az],
                VALE_REFE=Faloc_1[az],
            ),
            _F(
                RESULTAT=ResPDT,
                NOM_CHAM="EFGE_ELNO",
                INST=1.0,
                GROUP_MA="M01",
                POINT=1,
                REFERENCE="ANALYTIQUE",
                NOM_CMP="MT",
                VALE_CALC=Maloc_1[ax],
                VALE_REFE=Maloc_1[ax],
            ),
            _F(
                RESULTAT=ResPDT,
                NOM_CHAM="EFGE_ELNO",
                INST=1.0,
                GROUP_MA="M01",
                POINT=1,
                REFERENCE="ANALYTIQUE",
                NOM_CMP="MFY",
                VALE_CALC=Maloc_1[ay],
                VALE_REFE=Maloc_1[ay],
            ),
            _F(
                RESULTAT=ResPDT,
                NOM_CHAM="EFGE_ELNO",
                INST=1.0,
                GROUP_MA="M01",
                POINT=1,
                REFERENCE="ANALYTIQUE",
                NOM_CMP="MFZ",
                VALE_CALC=Maloc_1[az],
                VALE_REFE=Maloc_1[az],
            ),
            # Maille M01, noeud 2
            _F(
                RESULTAT=ResPDT,
                NOM_CHAM="EFGE_ELNO",
                INST=1.0,
                GROUP_MA="M01",
                POINT=2,
                REFERENCE="ANALYTIQUE",
                NOM_CMP="N",
                VALE_CALC=Fbloc_1[ax],
                VALE_REFE=Fbloc_1[ax],
            ),
            _F(
                RESULTAT=ResPDT,
                NOM_CHAM="EFGE_ELNO",
                INST=1.0,
                GROUP_MA="M01",
                POINT=2,
                REFERENCE="ANALYTIQUE",
                NOM_CMP="VY",
                VALE_CALC=Fbloc_1[ay],
                VALE_REFE=Fbloc_1[ay],
            ),
            _F(
                RESULTAT=ResPDT,
                NOM_CHAM="EFGE_ELNO",
                INST=1.0,
                GROUP_MA="M01",
                POINT=2,
                REFERENCE="ANALYTIQUE",
                NOM_CMP="VZ",
                VALE_CALC=Fbloc_1[az],
                VALE_REFE=Fbloc_1[az],
            ),
            _F(
                RESULTAT=ResPDT,
                NOM_CHAM="EFGE_ELNO",
                INST=1.0,
                GROUP_MA="M01",
                POINT=2,
                REFERENCE="ANALYTIQUE",
                NOM_CMP="MT",
                VALE_CALC=Mbloc_1[ax],
                VALE_REFE=Mbloc_1[ax],
            ),
            _F(
                RESULTAT=ResPDT,
                NOM_CHAM="EFGE_ELNO",
                INST=1.0,
                GROUP_MA="M01",
                POINT=2,
                REFERENCE="ANALYTIQUE",
                NOM_CMP="MFY",
                VALE_CALC=Mbloc_1[ay],
                VALE_REFE=Mbloc_1[ay],
            ),
            _F(
                RESULTAT=ResPDT,
                NOM_CHAM="EFGE_ELNO",
                INST=1.0,
                GROUP_MA="M01",
                POINT=2,
                REFERENCE="ANALYTIQUE",
                NOM_CMP="MFZ",
                VALE_CALC=Mbloc_1[az],
                VALE_REFE=Mbloc_1[az],
            ),
        )
    )

    TEST_RESU(
        RESU=(
            # Maille M02, noeud 1
            _F(
                RESULTAT=ResPDT,
                NOM_CHAM="EFGE_ELNO",
                INST=1.0,
                GROUP_MA="M02",
                POINT=1,
                REFERENCE="ANALYTIQUE",
                NOM_CMP="N",
                VALE_CALC=Fbloc_2[ax],
                VALE_REFE=Fbloc_2[ax],
            ),
            _F(
                RESULTAT=ResPDT,
                NOM_CHAM="EFGE_ELNO",
                INST=1.0,
                GROUP_MA="M02",
                POINT=1,
                REFERENCE="ANALYTIQUE",
                NOM_CMP="VY",
                VALE_CALC=Fbloc_2[ay],
                VALE_REFE=Fbloc_2[ay],
            ),
            _F(
                RESULTAT=ResPDT,
                NOM_CHAM="EFGE_ELNO",
                INST=1.0,
                GROUP_MA="M02",
                POINT=1,
                REFERENCE="ANALYTIQUE",
                NOM_CMP="VZ",
                VALE_CALC=Fbloc_2[az],
                VALE_REFE=Fbloc_2[az],
            ),
            _F(
                RESULTAT=ResPDT,
                NOM_CHAM="EFGE_ELNO",
                INST=1.0,
                GROUP_MA="M02",
                POINT=1,
                REFERENCE="ANALYTIQUE",
                NOM_CMP="MT",
                VALE_CALC=Mbloc_2[ax],
                VALE_REFE=Mbloc_2[ax],
            ),
            _F(
                RESULTAT=ResPDT,
                NOM_CHAM="EFGE_ELNO",
                INST=1.0,
                GROUP_MA="M02",
                POINT=1,
                REFERENCE="ANALYTIQUE",
                NOM_CMP="MFY",
                VALE_CALC=Mbloc_2[ay],
                VALE_REFE=Mbloc_2[ay],
            ),
            _F(
                RESULTAT=ResPDT,
                NOM_CHAM="EFGE_ELNO",
                INST=1.0,
                GROUP_MA="M02",
                POINT=1,
                REFERENCE="ANALYTIQUE",
                NOM_CMP="MFZ",
                VALE_CALC=Mbloc_2[az],
                VALE_REFE=Mbloc_2[az],
            ),
            # Maille M02, noeud 2
            _F(
                RESULTAT=ResPDT,
                NOM_CHAM="EFGE_ELNO",
                INST=1.0,
                GROUP_MA="M02",
                POINT=2,
                REFERENCE="ANALYTIQUE",
                NOM_CMP="N",
                VALE_CALC=Fcloc_2[ax],
                VALE_REFE=Fcloc_2[ax],
            ),
            _F(
                RESULTAT=ResPDT,
                NOM_CHAM="EFGE_ELNO",
                INST=1.0,
                GROUP_MA="M02",
                POINT=2,
                REFERENCE="ANALYTIQUE",
                NOM_CMP="VY",
                VALE_CALC=Fcloc_2[ay],
                VALE_REFE=Fcloc_2[ay],
            ),
            _F(
                RESULTAT=ResPDT,
                NOM_CHAM="EFGE_ELNO",
                INST=1.0,
                GROUP_MA="M02",
                POINT=2,
                REFERENCE="ANALYTIQUE",
                NOM_CMP="VZ",
                VALE_CALC=Fcloc_2[az],
                VALE_REFE=Fcloc_2[az],
            ),
            _F(
                RESULTAT=ResPDT,
                NOM_CHAM="EFGE_ELNO",
                INST=1.0,
                GROUP_MA="M02",
                POINT=2,
                REFERENCE="ANALYTIQUE",
                NOM_CMP="MT",
                VALE_CALC=Mcloc_2[ax],
                VALE_REFE=Mcloc_2[ax],
            ),
            _F(
                RESULTAT=ResPDT,
                NOM_CHAM="EFGE_ELNO",
                INST=1.0,
                GROUP_MA="M02",
                POINT=2,
                REFERENCE="ANALYTIQUE",
                NOM_CMP="MFY",
                VALE_CALC=Mcloc_2[ay],
                VALE_REFE=Mcloc_2[ay],
            ),
            _F(
                RESULTAT=ResPDT,
                NOM_CHAM="EFGE_ELNO",
                INST=1.0,
                GROUP_MA="M02",
                POINT=2,
                REFERENCE="ANALYTIQUE",
                NOM_CMP="MFZ",
                VALE_CALC=Mcloc_2[az],
                VALE_REFE=Mcloc_2[az],
            ),
        )
    )

    TEST_RESU(
        RESU=(
            # Maille M03, noeud 1
            _F(
                RESULTAT=ResPDT,
                NOM_CHAM="EFGE_ELNO",
                INST=1.0,
                GROUP_MA="M03",
                POINT=1,
                REFERENCE="ANALYTIQUE",
                NOM_CMP="N",
                VALE_CALC=Fcloc_3[ax],
                VALE_REFE=Fcloc_3[ax],
            ),
            _F(
                RESULTAT=ResPDT,
                NOM_CHAM="EFGE_ELNO",
                INST=1.0,
                GROUP_MA="M03",
                POINT=1,
                REFERENCE="ANALYTIQUE",
                NOM_CMP="VY",
                VALE_CALC=Fcloc_3[ay],
                VALE_REFE=Fcloc_3[ay],
            ),
            _F(
                RESULTAT=ResPDT,
                NOM_CHAM="EFGE_ELNO",
                INST=1.0,
                GROUP_MA="M03",
                POINT=1,
                REFERENCE="ANALYTIQUE",
                NOM_CMP="VZ",
                VALE_CALC=Fcloc_3[az],
                VALE_REFE=Fcloc_3[az],
            ),
            _F(
                RESULTAT=ResPDT,
                NOM_CHAM="EFGE_ELNO",
                INST=1.0,
                GROUP_MA="M03",
                POINT=1,
                REFERENCE="ANALYTIQUE",
                NOM_CMP="MT",
                VALE_CALC=Mcloc_3[ax],
                VALE_REFE=Mcloc_3[ax],
            ),
            _F(
                RESULTAT=ResPDT,
                NOM_CHAM="EFGE_ELNO",
                INST=1.0,
                GROUP_MA="M03",
                POINT=1,
                REFERENCE="ANALYTIQUE",
                NOM_CMP="MFY",
                VALE_CALC=Mcloc_3[ay],
                VALE_REFE=Mcloc_3[ay],
            ),
            _F(
                RESULTAT=ResPDT,
                NOM_CHAM="EFGE_ELNO",
                INST=1.0,
                GROUP_MA="M03",
                POINT=1,
                REFERENCE="ANALYTIQUE",
                NOM_CMP="MFZ",
                VALE_CALC=Mcloc_3[az],
                VALE_REFE=Mcloc_3[az],
            ),
            # Maille M03, noeud 2
            _F(
                RESULTAT=ResPDT,
                NOM_CHAM="EFGE_ELNO",
                INST=1.0,
                GROUP_MA="M03",
                POINT=2,
                REFERENCE="ANALYTIQUE",
                NOM_CMP="N",
                VALE_CALC=Fcloc_3[ax],
                VALE_REFE=Fcloc_3[ax],
            ),
            _F(
                RESULTAT=ResPDT,
                NOM_CHAM="EFGE_ELNO",
                INST=1.0,
                GROUP_MA="M03",
                POINT=2,
                REFERENCE="ANALYTIQUE",
                NOM_CMP="VY",
                VALE_CALC=Fcloc_3[ay],
                VALE_REFE=Fcloc_3[ay],
            ),
            _F(
                RESULTAT=ResPDT,
                NOM_CHAM="EFGE_ELNO",
                INST=1.0,
                GROUP_MA="M03",
                POINT=2,
                REFERENCE="ANALYTIQUE",
                NOM_CMP="VZ",
                VALE_CALC=Fcloc_3[az],
                VALE_REFE=Fcloc_3[az],
            ),
            _F(
                RESULTAT=ResPDT,
                NOM_CHAM="EFGE_ELNO",
                INST=1.0,
                GROUP_MA="M03",
                POINT=2,
                REFERENCE="ANALYTIQUE",
                NOM_CMP="MT",
                VALE_CALC=Mdloc_3[ax],
                VALE_REFE=Mdloc_3[ax],
            ),
            _F(
                RESULTAT=ResPDT,
                NOM_CHAM="EFGE_ELNO",
                INST=1.0,
                GROUP_MA="M03",
                POINT=2,
                REFERENCE="ANALYTIQUE",
                NOM_CMP="MFY",
                VALE_CALC=Mdloc_3[ay],
                VALE_REFE=Mdloc_3[ay],
            ),
            _F(
                RESULTAT=ResPDT,
                NOM_CHAM="EFGE_ELNO",
                INST=1.0,
                GROUP_MA="M03",
                POINT=2,
                REFERENCE="ANALYTIQUE",
                NOM_CMP="MFZ",
                VALE_CALC=Mdloc_3[az],
                VALE_REFE=Mdloc_3[az],
            ),
        )
    )
FIN()
