# coding=utf-8
# --------------------------------------------------------------------
# Copyright (C) 1991 - 2025 - EDF R&D - www.code-aster.org
# This file is part of code_aster.
#
# code_aster is free software: you can redistribute it and/or modify
# it under the terms of the GNU General Public License as published by
# the Free Software Foundation, either version 3 of the License, or
# (at your option) any later version.
#
# code_aster is distributed in the hope that it will be useful,
# but WITHOUT ANY WARRANTY; without even the implied warranty of
# MERCHANTABILITY or FITNESS FOR A PARTICULAR PURPOSE.  See the
# GNU General Public License for more details.
#
# You should have received a copy of the GNU General Public License
# along with code_aster.  If not, see <http://www.gnu.org/licenses/>.
# --------------------------------------------------------------------

# CONTRAINTES PLANES
# CALCUL DE L INTEGRALE G SUR DIFFERENTES COURONNES D'INTEGRATION
#
DEBUT(CODE="OUI", ERREUR=_F(ALARME="EXCEPTION"), DEBUG=_F(SDVERI="OUI"))

MA = LIRE_MAILLAGE(FORMAT="MED")


MO = AFFE_MODELE(MAILLAGE=MA, AFFE=_F(TOUT="OUI", PHENOMENE="MECANIQUE", MODELISATION="C_PLAN"))

MAT = DEFI_MATERIAU(ELAS=_F(E=200000.0, NU=0.3, RHO=1.0))

CHMAT = AFFE_MATERIAU(MAILLAGE=MA, AFFE=_F(TOUT="OUI", MATER=MAT))

# -----------------------------------------------------------------------
CH = AFFE_CHAR_MECA(
    MODELE=MO,
    DDL_IMPO=(_F(GROUP_NO="GRNM5", DY=0.0), _F(GROUP_NO="N451", DX=0.0)),
    FORCE_CONTOUR=_F(GROUP_MA="GRMA1", FY=1.0),
)

# -----------------------------------------------------------------------

CHAMDEPL = MECA_STATIQUE(MODELE=MO, CHAM_MATER=CHMAT, EXCIT=_F(CHARGE=CH))

FOND = DEFI_FOND_FISS(
    MAILLAGE=MA,
    FOND_FISS=_F(GROUP_NO="GRNO9"),
    SYME="OUI",
    CONFIG_INIT="DECOLLEE",
    NORMALE=(0.0, 1.0, 0.0),
    LEVRE_SUP=_F(GROUP_MA="M306"),
)
G1 = CALC_G(RESULTAT=CHAMDEPL, THETA=_F(R_INF=22.04078, R_SUP=30.0, FISSURE=FOND), OPTION="G")

G2 = CALC_G(RESULTAT=CHAMDEPL, THETA=_F(R_INF=15.3061094, R_SUP=22.04078, FISSURE=FOND), OPTION="G")

G3 = CALC_G(
    RESULTAT=CHAMDEPL, THETA=_F(R_INF=9.79591846, R_SUP=15.3061094, FISSURE=FOND), OPTION="G"
)

G4 = CALC_G(
    RESULTAT=CHAMDEPL, THETA=_F(R_INF=5.510197639, R_SUP=9.79591846, FISSURE=FOND), OPTION="G"
)

G5 = CALC_G(
    RESULTAT=CHAMDEPL, THETA=_F(R_INF=2.448979377, R_SUP=5.510197639, FISSURE=FOND), OPTION="G"
)

G6 = CALC_G(
    RESULTAT=CHAMDEPL, THETA=_F(R_INF=0.61225116, R_SUP=2.448979377, FISSURE=FOND), OPTION="G"
)

TEST_TABLE(
    PRECISION=5.0000000000000001e-3,
    VALE_CALC=0.00229940675469,
    VALE_REFE=2.3092999999999998e-3,
    REFERENCE="NON_DEFINI",
    NOM_PARA="G",
    TABLE=G1,
)

TEST_TABLE(
    PRECISION=5.0000000000000001e-3,
    VALE_CALC=0.00229934595953,
    VALE_REFE=2.3092999999999998e-3,
    REFERENCE="NON_DEFINI",
    NOM_PARA="G",
    TABLE=G2,
)

TEST_TABLE(
    PRECISION=5.0000000000000001e-3,
    VALE_CALC=0.00229929002036,
    VALE_REFE=2.3092999999999998e-3,
    REFERENCE="NON_DEFINI",
    NOM_PARA="G",
    TABLE=G3,
)

TEST_TABLE(
    PRECISION=5.0000000000000001e-3,
    VALE_CALC=0.00229906870983,
    VALE_REFE=2.3092999999999998e-3,
    REFERENCE="NON_DEFINI",
    NOM_PARA="G",
    TABLE=G4,
)

TEST_TABLE(
    PRECISION=5.0000000000000001e-3,
    VALE_CALC=0.00229813106988,
    VALE_REFE=2.3092999999999998e-3,
    REFERENCE="NON_DEFINI",
    NOM_PARA="G",
    TABLE=G5,
)

TEST_TABLE(
    PRECISION=1.0e-2,
    VALE_CALC=0.00229062455905,
    VALE_REFE=2.3092999999999998e-3,
    REFERENCE="NON_DEFINI",
    NOM_PARA="G",
    TABLE=G6,
)

FIN()
#
