# coding=utf-8
# --------------------------------------------------------------------
# Copyright (C) 1991 - 2025 - EDF R&D - www.code-aster.org
# This file is part of code_aster.
#
# code_aster is free software: you can redistribute it and/or modify
# it under the terms of the GNU General Public License as published by
# the Free Software Foundation, either version 3 of the License, or
# (at your option) any later version.
#
# code_aster is distributed in the hope that it will be useful,
# but WITHOUT ANY WARRANTY; without even the implied warranty of
# MERCHANTABILITY or FITNESS FOR A PARTICULAR PURPOSE.  See the
# GNU General Public License for more details.
#
# You should have received a copy of the GNU General Public License
# along with code_aster.  If not, see <http://www.gnu.org/licenses/>.
# --------------------------------------------------------------------

#  CALCUL NON LINEAIRE EN STATIQUE & DYNAMIQUE
# ======================================================================
# CAS_TEST__: SSLP100C
# SSLP100/C
# CROSSE CHARGEE EN SOUS-STRUCTURATION STATIQUE.
# MODELISATION : SANS SOUS-STRUCTURES (MODELISATION DE REFERENCE).
# ======================================================================


DEBUT(CODE="OUI", ERREUR=_F(ALARME="EXCEPTION"), DEBUG=_F(SDVERI="OUI"))

ACIER = DEFI_MATERIAU(ELAS=_F(E=1.5e11, NU=0.3, RHO=7800.0))

ACIERNL = DEFI_MATERIAU(
    ELAS=_F(E=1.5e9, NU=0.3, RHO=7800.0), ECRO_LINE=_F(D_SIGM_EPSI=1.0e8, SY=1.5e6)
)

MA = LIRE_MAILLAGE(FORMAT="MED")

CHMAT = AFFE_MATERIAU(
    MAILLAGE=MA, AFFE=(_F(TOUT="OUI", MATER=ACIER), _F(GROUP_MA="GRSD1", MATER=ACIERNL))
)

MO = AFFE_MODELE(MAILLAGE=MA, AFFE=_F(TOUT="OUI", MODELISATION="D_PLAN", PHENOMENE="MECANIQUE"))

CHCI = AFFE_CHAR_CINE(
    MODELE=MO,
    MECA_IMPO=(_F(GROUP_NO="N35", DX=2.0e-2), _F(GROUP_NO=("N8", "N17", "N25"), DX=0.0, DY=0.0)),
)
CHBL = AFFE_CHAR_MECA(
    MODELE=MO,
    LIAISON_DDL=(
        #           GH :
        _F(GROUP_NO=("N22", "N22"), DDL=("DY", "DX"), COEF_MULT=(1.0, 1.0), COEF_IMPO=0.0),
        _F(GROUP_NO=("N24", "N24"), DDL=("DY", "DX"), COEF_MULT=(1.0, 1.0), COEF_IMPO=0.0),
        _F(GROUP_NO=("N26", "N26"), DDL=("DY", "DX"), COEF_MULT=(1.0, 1.0), COEF_IMPO=0.0),
        _F(GROUP_NO=("N28", "N28"), DDL=("DY", "DX"), COEF_MULT=(1.0, 1.0), COEF_IMPO=0.0),
    ),
)

CHF1 = AFFE_CHAR_MECA(
    MODELE=MO,
    #           SUIVEUR:
    PRES_REP=_F(GROUP_MA=("GRMA14", "GRMA17", "GRMA20"), PRES=10000.0),
)

CHF2 = AFFE_CHAR_MECA(
    MODELE=MO,
    #       NON-SUIVEUR:
    FORCE_NODALE=_F(GROUP_NO=("N11", "N19", "N27", "N33", "N31"), FY=-20.0),
)

CHF3 = AFFE_CHAR_MECA(MODELE=MO, PESANTEUR=_F(GRAVITE=-9.81, DIRECTION=(1.0, 0.0, 0.0)))

LISTIN1 = DEFI_LIST_REEL(DEBUT=0.0, INTERVALLE=_F(JUSQU_A=0.1, NOMBRE=3))

LISTIN2 = DEFI_LIST_REEL(DEBUT=0.1, INTERVALLE=_F(JUSQU_A=0.2, NOMBRE=2))


U = STAT_NON_LINE(
    MODELE=MO,
    CHAM_MATER=CHMAT,
    EXCIT=(_F(CHARGE=CHBL), _F(CHARGE=CHCI), _F(CHARGE=CHF1), _F(CHARGE=CHF2), _F(CHARGE=CHF3)),
    COMPORTEMENT=(_F(RELATION="ELAS", TOUT="OUI"), _F(RELATION="VMIS_ISOT_LINE", GROUP_MA="GRSD1")),
    INCREMENT=_F(LIST_INST=LISTIN1),
    NEWTON=_F(MATRICE="TANGENTE", REAC_ITER=1),
    CONVERGENCE=_F(
        #    RESI_GLOB_MAXI = 1E-8,
        ITER_GLOB_MAXI=10
    ),
    SOLVEUR=_F(METHODE="MULT_FRONT", STOP_SINGULIER="NON"),
)


U1 = CREA_CHAMP(
    TYPE_CHAM="NOEU_DEPL_R", OPERATION="EXTR", RESULTAT=U, NOM_CHAM="DEPL", NUME_ORDRE=3
)


TEST_RESU(
    CHAM_NO=(
        _F(
            GROUP_NO="N31",
            NOM_CMP="DX",
            CHAM_GD=U1,
            VALE_CALC=0.015366519405176,
            VALE_REFE=0.015366519405176001,
            REFERENCE="AUTRE_ASTER",
            PRECISION=1.0000000000000001e-05,
        ),
        _F(
            GROUP_NO="N31",
            NOM_CMP="DY",
            CHAM_GD=U1,
            VALE_CALC=-1.2161203814809e-03,
            VALE_REFE=-1.2161203814809e-3,
            REFERENCE="AUTRE_ASTER",
            PRECISION=1.0000000000000001e-05,
        ),
        _F(
            GROUP_NO="N28",
            NOM_CMP="DX",
            CHAM_GD=U1,
            VALE_CALC=1.0406892549362e-06,
            VALE_REFE=1.0406892549361999e-06,
            REFERENCE="AUTRE_ASTER",
            PRECISION=1.0000000000000001e-05,
        ),
        _F(
            GROUP_NO="N28",
            NOM_CMP="DY",
            CHAM_GD=U1,
            VALE_CALC=-1.0406892549362e-06,
            VALE_REFE=-1.0406892549361999e-06,
            REFERENCE="AUTRE_ASTER",
            PRECISION=1.0000000000000001e-05,
        ),
        _F(
            GROUP_NO="N13",
            NOM_CMP="DX",
            CHAM_GD=U1,
            VALE_CALC=8.0910521044671e-06,
            VALE_REFE=8.0910521044671008e-06,
            REFERENCE="AUTRE_ASTER",
            PRECISION=1.0000000000000001e-05,
        ),
        _F(
            GROUP_NO="N13",
            NOM_CMP="DY",
            CHAM_GD=U1,
            VALE_CALC=-1.5110509100169e-05,
            VALE_REFE=-1.5110509100169e-05,
            REFERENCE="AUTRE_ASTER",
            PRECISION=1.0000000000000001e-05,
        ),
        _F(
            GROUP_NO="N10",
            NOM_CMP="DX",
            CHAM_GD=U1,
            VALE_CALC=6.8940445817137e-05,
            VALE_REFE=6.8940445817137005e-05,
            REFERENCE="AUTRE_ASTER",
            PRECISION=1.0000000000000001e-05,
        ),
        _F(
            GROUP_NO="N10",
            NOM_CMP="DY",
            CHAM_GD=U1,
            VALE_CALC=9.2096201614429e-05,
            VALE_REFE=9.2096201614429003e-05,
            REFERENCE="AUTRE_ASTER",
            PRECISION=1.0000000000000001e-05,
        ),
    )
)

U = DYNA_NON_LINE(
    reuse=U,
    MODELE=MO,
    CHAM_MATER=CHMAT,
    EXCIT=(_F(CHARGE=CHBL), _F(CHARGE=CHCI), _F(CHARGE=CHF1), _F(CHARGE=CHF2), _F(CHARGE=CHF3)),
    ETAT_INIT=_F(EVOL_NOLI=U),
    COMPORTEMENT=(_F(RELATION="ELAS", TOUT="OUI"), _F(RELATION="VMIS_ISOT_LINE", GROUP_MA="GRSD1")),
    INCREMENT=_F(LIST_INST=LISTIN2),
    SCHEMA_TEMPS=_F(SCHEMA="NEWMARK", FORMULATION="DEPLACEMENT"),
    NEWTON=_F(MATRICE="TANGENTE", REAC_ITER=1),
    CONVERGENCE=_F(RESI_GLOB_RELA=1.0e-8, ITER_GLOB_MAXI=10),
    SOLVEUR=_F(METHODE="MULT_FRONT", STOP_SINGULIER="NON"),
)

U2 = CREA_CHAMP(
    TYPE_CHAM="NOEU_DEPL_R", OPERATION="EXTR", RESULTAT=U, NOM_CHAM="DEPL", NUME_ORDRE=5
)


TEST_RESU(
    CHAM_NO=(
        _F(
            GROUP_NO="N31",
            NOM_CMP="DX",
            CHAM_GD=U2,
            VALE_CALC=0.015366519405369,
            VALE_REFE=0.015366519405368999,
            REFERENCE="AUTRE_ASTER",
            PRECISION=1.0000000000000001e-05,
        ),
        _F(
            GROUP_NO="N31",
            NOM_CMP="DY",
            CHAM_GD=U2,
            VALE_CALC=-1.2161203823997e-03,
            VALE_REFE=-1.2161203823997e-3,
            REFERENCE="AUTRE_ASTER",
            PRECISION=1.0000000000000001e-05,
        ),
        _F(
            GROUP_NO="N28",
            NOM_CMP="DX",
            CHAM_GD=U2,
            VALE_CALC=1.0406892551514e-06,
            VALE_REFE=1.0406892551514001e-06,
            REFERENCE="AUTRE_ASTER",
            PRECISION=1.0000000000000001e-05,
        ),
        _F(
            GROUP_NO="N28",
            NOM_CMP="DY",
            CHAM_GD=U2,
            VALE_CALC=-1.0406892551514e-06,
            VALE_REFE=-1.0406892551514001e-06,
            REFERENCE="AUTRE_ASTER",
            PRECISION=1.0000000000000001e-05,
        ),
        _F(
            GROUP_NO="N13",
            NOM_CMP="DX",
            CHAM_GD=U2,
            VALE_CALC=8.0910521055951e-06,
            VALE_REFE=8.0910521055950997e-06,
            REFERENCE="AUTRE_ASTER",
            PRECISION=1.0000000000000001e-05,
        ),
        _F(
            GROUP_NO="N13",
            NOM_CMP="DY",
            CHAM_GD=U2,
            VALE_CALC=-1.5110509102094e-05,
            VALE_REFE=-1.5110509102093999e-05,
            REFERENCE="AUTRE_ASTER",
            PRECISION=1.0000000000000001e-05,
        ),
        _F(
            GROUP_NO="N10",
            NOM_CMP="DX",
            CHAM_GD=U2,
            VALE_CALC=6.8940445827615e-05,
            VALE_REFE=6.8940445827615006e-05,
            REFERENCE="AUTRE_ASTER",
            PRECISION=1.0000000000000001e-05,
        ),
        _F(
            GROUP_NO="N10",
            NOM_CMP="DY",
            CHAM_GD=U2,
            VALE_CALC=9.2096201627557e-05,
            VALE_REFE=9.2096201627558e-05,
            REFERENCE="AUTRE_ASTER",
            PRECISION=1.0000000000000001e-05,
        ),
    )
)

FIN()
