# coding=utf-8
# --------------------------------------------------------------------
# Copyright (C) 1991 - 2025 - EDF R&D - www.code-aster.org
# This file is part of code_aster.
#
# code_aster is free software: you can redistribute it and/or modify
# it under the terms of the GNU General Public License as published by
# the Free Software Foundation, either version 3 of the License, or
# (at your option) any later version.
#
# code_aster is distributed in the hope that it will be useful,
# but WITHOUT ANY WARRANTY; without even the implied warranty of
# MERCHANTABILITY or FITNESS FOR A PARTICULAR PURPOSE.  See the
# GNU General Public License for more details.
#
# You should have received a copy of the GNU General Public License
# along with code_aster.  If not, see <http://www.gnu.org/licenses/>.
# --------------------------------------------------------------------

# person_in_charge: ayaovi-dzifa.kudawoo at edf.fr
#

DEBUT(CODE="OUI", ERREUR=_F(ALARME="EXCEPTION"))

MAIL = LIRE_MAILLAGE(FORMAT="MED")

#
# DEFINITION DES GROUPES DE NOEUDS
MAIL = DEFI_GROUP(
    reuse=MAIL,
    MAILLAGE=MAIL,
    CREA_GROUP_NO=(_F(GROUP_MA="APPUI"), _F(GROUP_MA="BORD_CH"), _F(GROUP_MA="LEF")),
)

#
# DEFINITION DU MODELE
MODELE = AFFE_MODELE(MAILLAGE=MAIL, AFFE=_F(TOUT="OUI", PHENOMENE="MECANIQUE", MODELISATION="AXIS"))

#
# DEFINITION DU MATERIAU
ACIER = DEFI_MATERIAU(ELAS=_F(E=2.1e11, NU=0.3, ALPHA=1.0e-5, RHO=7800.0))

#
# ATTRIBUTION DU MATERIAU
CHMAT = AFFE_MATERIAU(MAILLAGE=MAIL, AFFE=_F(TOUT="OUI", MATER=ACIER))

#
# DEFINITION DES CONDITIONS AUX LIMITES ET CHARGEMENTS
CHARGT = AFFE_CHAR_MECA(
    MODELE=MODELE,
    DDL_IMPO=_F(GROUP_NO="APPUI", DY=0.0),
    FORCE_CONTOUR=_F(GROUP_MA="BORD_CH", FY=500000.0)
    #                                 ...  FY= Q/H  ...
)

#
# RESOLUTION
DEF = MECA_STATIQUE(MODELE=MODELE, CHAM_MATER=CHMAT, EXCIT=_F(CHARGE=CHARGT))

#
# RECUPERATION DU CHAMP DE DEPLACEMENTS
U = CREA_CHAMP(
    OPERATION="EXTR", TYPE_CHAM="NOEU_DEPL_R", NOM_CHAM="DEPL", RESULTAT=DEF, NUME_ORDRE=1
)

#
# CALCUL DES CONTRAINTES

DEF = CALC_CHAMP(reuse=DEF, RESULTAT=DEF, CONTRAINTE=("SIGM_ELNO"))


#
# TEST_RESU DEPLACEMENTS
#
TEST_RESU(
    CHAM_NO=(
        _F(
            GROUP_NO="N452",
            REFERENCE="ANALYTIQUE",
            NOM_CMP="DY",
            PRECISION=1.0e-3,
            CHAM_GD=U,
            VALE_CALC=9.5238095238e-06,
            VALE_REFE=9.5200000000000003e-06,
        ),
        _F(
            GROUP_NO="N504",
            REFERENCE="ANALYTIQUE",
            NOM_CMP="DY",
            PRECISION=1.0e-3,
            CHAM_GD=U,
            VALE_CALC=9.52380952381e-06,
            VALE_REFE=9.5200000000000003e-06,
        ),
        _F(
            GROUP_NO="N503",
            REFERENCE="ANALYTIQUE",
            NOM_CMP="DY",
            PRECISION=1.0e-3,
            CHAM_GD=U,
            VALE_CALC=9.52380952381e-06,
            VALE_REFE=9.5200000000000003e-06,
        ),
    )
)

#
TEST_RESU(
    CHAM_NO=(
        _F(
            GROUP_NO="N51",
            REFERENCE="ANALYTIQUE",
            NOM_CMP="DX",
            PRECISION=1.0e-3,
            CHAM_GD=U,
            VALE_CALC=-7.14285714286e-07,
            VALE_REFE=-7.1399999999999996e-07,
        ),
        _F(
            GROUP_NO="N202",
            REFERENCE="ANALYTIQUE",
            NOM_CMP="DX",
            PRECISION=1.0e-3,
            CHAM_GD=U,
            VALE_CALC=-7.14285714284e-07,
            VALE_REFE=-7.1399999999999996e-07,
        ),
        _F(
            GROUP_NO="N503",
            REFERENCE="ANALYTIQUE",
            NOM_CMP="DX",
            PRECISION=1.0e-3,
            CHAM_GD=U,
            VALE_CALC=-7.14285714283e-07,
            VALE_REFE=-7.1399999999999996e-07,
        ),
    )
)

#
# TEST_RESU CONTRAINTES
#
TEST_RESU(
    RESU=(
        _F(
            NUME_ORDRE=1,
            REFERENCE="ANALYTIQUE",
            RESULTAT=DEF,
            NOM_CHAM="SIGM_ELNO",
            GROUP_NO="N1",
            NOM_CMP="SIXX",
            VALE_CALC=-1.84164064948e-08,
            VALE_REFE=0.0,
            CRITERE="ABSOLU",
            PRECISION=1.0e-4,
            GROUP_MA="M4",
        ),
        _F(
            NUME_ORDRE=1,
            REFERENCE="ANALYTIQUE",
            RESULTAT=DEF,
            NOM_CHAM="SIGM_ELNO",
            GROUP_NO="N101",
            NOM_CMP="SIXX",
            VALE_CALC=-5.61616859562e-09,
            VALE_REFE=0.0,
            CRITERE="ABSOLU",
            PRECISION=1.0e-4,
            GROUP_MA="M4",
        ),
        _F(
            NUME_ORDRE=1,
            REFERENCE="ANALYTIQUE",
            RESULTAT=DEF,
            NOM_CHAM="SIGM_ELNO",
            GROUP_NO="N452",
            NOM_CMP="SIXX",
            VALE_CALC=-2.17734774228e-08,
            VALE_REFE=0.0,
            CRITERE="ABSOLU",
            PRECISION=1.0e-4,
            GROUP_MA="M153",
        ),
        _F(
            NUME_ORDRE=1,
            REFERENCE="ANALYTIQUE",
            RESULTAT=DEF,
            NOM_CHAM="SIGM_ELNO",
            GROUP_NO="N504",
            NOM_CMP="SIXX",
            VALE_CALC=-4.38484080252e-08,
            VALE_REFE=0.0,
            CRITERE="ABSOLU",
            PRECISION=1.0e-4,
            GROUP_MA="M153",
        ),
        _F(
            NUME_ORDRE=1,
            REFERENCE="ANALYTIQUE",
            RESULTAT=DEF,
            NOM_CHAM="SIGM_ELNO",
            GROUP_NO="N201",
            NOM_CMP="SIXX",
            VALE_CALC=9.72415773555e-09,
            VALE_REFE=0.0,
            CRITERE="ABSOLU",
            PRECISION=1.0e-4,
            GROUP_MA="M53",
        ),
        _F(
            NUME_ORDRE=1,
            REFERENCE="ANALYTIQUE",
            RESULTAT=DEF,
            NOM_CHAM="SIGM_ELNO",
            GROUP_NO="N203",
            NOM_CMP="SIXX",
            VALE_CALC=8.0142536866e-10,
            VALE_REFE=0.0,
            CRITERE="ABSOLU",
            PRECISION=1.0e-4,
            GROUP_MA="M53",
        ),
        _F(
            NUME_ORDRE=1,
            REFERENCE="ANALYTIQUE",
            RESULTAT=DEF,
            NOM_CHAM="SIGM_ELNO",
            GROUP_NO="N51",
            NOM_CMP="SIXX",
            VALE_CALC=-1.20162875452e-08,
            VALE_REFE=0.0,
            CRITERE="ABSOLU",
            PRECISION=1.0e-4,
            GROUP_MA="M4",
        ),
        _F(
            NUME_ORDRE=1,
            REFERENCE="ANALYTIQUE",
            RESULTAT=DEF,
            NOM_CHAM="SIGM_ELNO",
            GROUP_NO="N202",
            NOM_CMP="SIXX",
            VALE_CALC=5.26279155211e-09,
            VALE_REFE=0.0,
            CRITERE="ABSOLU",
            PRECISION=1.0e-4,
            GROUP_MA="M53",
        ),
        _F(
            NUME_ORDRE=1,
            REFERENCE="ANALYTIQUE",
            RESULTAT=DEF,
            NOM_CHAM="SIGM_ELNO",
            GROUP_NO="N503",
            NOM_CMP="SIXX",
            VALE_CALC=-3.2810942724e-08,
            VALE_REFE=0.0,
            CRITERE="ABSOLU",
            PRECISION=1.0e-4,
            GROUP_MA="M153",
        ),
        _F(
            NUME_ORDRE=1,
            REFERENCE="ANALYTIQUE",
            RESULTAT=DEF,
            NOM_CHAM="SIGM_ELNO",
            GROUP_NO="N1",
            NOM_CMP="SIYY",
            VALE_CALC=500000.0,
            VALE_REFE=5.0e5,
            PRECISION=1.0e-4,
            GROUP_MA="M4",
        ),
        _F(
            NUME_ORDRE=1,
            REFERENCE="ANALYTIQUE",
            RESULTAT=DEF,
            NOM_CHAM="SIGM_ELNO",
            GROUP_NO="N101",
            NOM_CMP="SIYY",
            VALE_CALC=500000.0,
            VALE_REFE=5.0e5,
            PRECISION=1.0e-4,
            GROUP_MA="M4",
        ),
        _F(
            NUME_ORDRE=1,
            REFERENCE="ANALYTIQUE",
            RESULTAT=DEF,
            NOM_CHAM="SIGM_ELNO",
            GROUP_NO="N452",
            NOM_CMP="SIYY",
            VALE_CALC=500000.0,
            VALE_REFE=5.0e5,
            PRECISION=1.0e-4,
            GROUP_MA="M153",
        ),
        _F(
            NUME_ORDRE=1,
            REFERENCE="ANALYTIQUE",
            RESULTAT=DEF,
            NOM_CHAM="SIGM_ELNO",
            GROUP_NO="N504",
            NOM_CMP="SIYY",
            VALE_CALC=500000.0,
            VALE_REFE=5.0e5,
            PRECISION=1.0e-4,
            GROUP_MA="M153",
        ),
        _F(
            NUME_ORDRE=1,
            REFERENCE="ANALYTIQUE",
            RESULTAT=DEF,
            NOM_CHAM="SIGM_ELNO",
            GROUP_NO="N201",
            NOM_CMP="SIYY",
            VALE_CALC=499999.999999,
            VALE_REFE=5.0e5,
            PRECISION=1.0e-4,
            GROUP_MA="M53",
        ),
        _F(
            NUME_ORDRE=1,
            REFERENCE="ANALYTIQUE",
            RESULTAT=DEF,
            NOM_CHAM="SIGM_ELNO",
            GROUP_NO="N203",
            NOM_CMP="SIYY",
            VALE_CALC=500000.0,
            VALE_REFE=5.0e5,
            PRECISION=1.0e-4,
            GROUP_MA="M53",
        ),
        _F(
            NUME_ORDRE=1,
            REFERENCE="ANALYTIQUE",
            RESULTAT=DEF,
            NOM_CHAM="SIGM_ELNO",
            GROUP_NO="N51",
            NOM_CMP="SIYY",
            VALE_CALC=500000.0,
            VALE_REFE=5.0e5,
            PRECISION=1.0e-4,
            GROUP_MA="M4",
        ),
        _F(
            NUME_ORDRE=1,
            REFERENCE="ANALYTIQUE",
            RESULTAT=DEF,
            NOM_CHAM="SIGM_ELNO",
            GROUP_NO="N202",
            NOM_CMP="SIYY",
            VALE_CALC=500000.0,
            VALE_REFE=5.0e5,
            PRECISION=1.0e-4,
            GROUP_MA="M53",
        ),
        _F(
            NUME_ORDRE=1,
            REFERENCE="ANALYTIQUE",
            RESULTAT=DEF,
            NOM_CHAM="SIGM_ELNO",
            GROUP_NO="N503",
            NOM_CMP="SIYY",
            VALE_CALC=500000.0,
            VALE_REFE=5.0e5,
            PRECISION=1.0e-4,
            GROUP_MA="M153",
        ),
    )
)

FIN()
#
