# coding=utf-8
# --------------------------------------------------------------------
# Copyright (C) 1991 - 2025 - EDF R&D - www.code-aster.org
# This file is part of code_aster.
#
# code_aster is free software: you can redistribute it and/or modify
# it under the terms of the GNU General Public License as published by
# the Free Software Foundation, either version 3 of the License, or
# (at your option) any later version.
#
# code_aster is distributed in the hope that it will be useful,
# but WITHOUT ANY WARRANTY; without even the implied warranty of
# MERCHANTABILITY or FITNESS FOR A PARTICULAR PURPOSE.  See the
# GNU General Public License for more details.
#
# You should have received a copy of the GNU General Public License
# along with code_aster.  If not, see <http://www.gnu.org/licenses/>.
# --------------------------------------------------------------------

DEBUT(
    CODE="OUI",
    DEBUG=_F(SDVERI="OUI"),
    ERREUR=_F(ALARME="EXCEPTION", ERREUR_F="EXCEPTION"),
    IGNORE_ALARM=(),
)

# ~ Units
Pa = 1.0e6
MPa = 1
mm = 1.0e3
m = 1
# Le maillage est en mm
# On retient donc des forces en N
# et des contraintes en MPa

mesh = LIRE_MAILLAGE(FORMAT="MED", UNITE=20)

mesh = DEFI_GROUP(
    reuse=mesh,
    MAILLAGE=mesh,
    CREA_GROUP_NO=(
        _F(NOM="N1", INTERSEC=("START", "LOWER")),
        _F(NOM="N2", INTERSEC=("END", "LOWER")),
    ),
)

mesh = DEFI_GROUP(
    reuse=mesh,
    MAILLAGE=mesh,
    CREA_GROUP_MA=(
        _F(NOM="BORD", OPTION="SPHERE", GROUP_NO_CENTRE="N2", RAYON=0.00001),
        _F(GROUP_MA="BORD", NUME_INIT=3, NUME_FIN=3, NOM="EXTREMITE"),
    ),
)

cls = DEFI_MATERIAU(ELAS=_F(E=30000.0 * MPa, NU=0.3))

model = AFFE_MODELE(
    AFFE=_F(MODELISATION=("DKT",), PHENOMENE="MECANIQUE", TOUT="OUI"), MAILLAGE=mesh
)

fieldmat = AFFE_MATERIAU(AFFE=_F(MATER=(cls,), TOUT="OUI"), MODELE=model)

elemprop = AFFE_CARA_ELEM(
    MODELE=model, COQUE=_F(GROUP_MA="ELEMENTS", EPAIS=0.3 * mm, VECTEUR=(0, 0, 1))
)

boundary = AFFE_CHAR_MECA(
    MODELE=model,
    DDL_IMPO=_F(GROUP_NO=("START",), DX=0.0, DY=0.0, DZ=0.0, DRX=0.0, DRY=0.0, DRZ=0.0),
)


# Pour les forces on divise par 11 (nbr de noeuds)

shearLd1 = AFFE_CHAR_MECA(MODELE=model, FORCE_NODALE=_F(GROUP_NO=("END",), FZ=-1.5e6 / 11))

shearLd2 = AFFE_CHAR_MECA(MODELE=model, FORCE_NODALE=_F(GROUP_NO=("END",), FZ=-3.0e6 / 11))

shearLd3 = AFFE_CHAR_MECA(MODELE=model, FORCE_NODALE=_F(GROUP_NO=("END",), FZ=-4.5e6 / 11))

tractLd1 = AFFE_CHAR_MECA(MODELE=model, FORCE_NODALE=_F(GROUP_NO=("END",), FY=+1.0e6 / 11))

tractLd2 = AFFE_CHAR_MECA(MODELE=model, FORCE_NODALE=_F(GROUP_NO=("END",), FY=+2.0e6 / 11))

tractLd3 = AFFE_CHAR_MECA(MODELE=model, FORCE_NODALE=_F(GROUP_NO=("END",), FY=+3.0e6 / 11))

comprLd1 = AFFE_CHAR_MECA(MODELE=model, FORCE_NODALE=_F(GROUP_NO=("END",), FY=-1.5e6 / 11))

comprLd2 = AFFE_CHAR_MECA(MODELE=model, FORCE_NODALE=_F(GROUP_NO=("END",), FY=-3.0e6 / 11))

reslin = MACRO_ELAS_MULT(
    MODELE=model,
    CHAM_MATER=fieldmat,
    CARA_ELEM=elemprop,
    CHAR_MECA_GLOBAL=boundary,
    CAS_CHARGE=(
        _F(
            NOM_CAS="shearLd1",
            SOUS_TITRE="nodal load FZ = -1.5E+3 [KN]",
            CHAR_MECA=shearLd1,
            OPTION="SANS",
        ),
        _F(
            NOM_CAS="shearLd2",
            SOUS_TITRE="nodal load FZ = -3.0E+3 [KN]",
            CHAR_MECA=shearLd2,
            OPTION="SANS",
        ),
        _F(
            NOM_CAS="shearLd3",
            SOUS_TITRE="nodal load FZ = -4.5E+3 [KN]",
            CHAR_MECA=shearLd3,
            OPTION="SANS",
        ),
        _F(
            NOM_CAS="tractLd1",
            SOUS_TITRE="nodal load FY = +1.0E+3 [KN]",
            CHAR_MECA=tractLd1,
            OPTION="SANS",
        ),
        _F(
            NOM_CAS="tractLd2",
            SOUS_TITRE="nodal load FY = +2.0E+3 [KN]",
            CHAR_MECA=tractLd2,
            OPTION="SANS",
        ),
        _F(
            NOM_CAS="tractLd3",
            SOUS_TITRE="nodal load FY = +3.0E+3 [KN]",
            CHAR_MECA=tractLd3,
            OPTION="SANS",
        ),
        _F(
            NOM_CAS="comprLd1",
            SOUS_TITRE="nodal load FY = -1.5E+3 [KN]",
            CHAR_MECA=comprLd1,
            OPTION="SANS",
        ),
        _F(
            NOM_CAS="comprLd2",
            SOUS_TITRE="nodal load FY = -3.0E+3 [KN]",
            CHAR_MECA=comprLd2,
            OPTION="SANS",
        ),
    ),
)

reslin = CALC_CHAMP(
    reuse=reslin,
    MODELE=model,
    CHAM_MATER=fieldmat,
    CARA_ELEM=elemprop,
    RESULTAT=reslin,
    CONTRAINTE=("EFGE_ELNO", "SIEF_ELNO"),
)

postres = POST_CHAMP(
    RESULTAT=reslin,
    GROUP_MA=("ELEMENTS",),
    EXTR_COQUE=_F(NUME_COUCHE=1, NIVE_COUCHE="MOY", NOM_CHAM=("SIEF_ELNO",)),
)

postres = CALC_CHAMP(
    reuse=postres,
    MODELE=model,
    CHAM_MATER=fieldmat,
    CARA_ELEM=elemprop,
    RESULTAT=postres,
    CONTRAINTE=("SIEF_NOEU",),
)

# Concrete properties
fck = 35 * MPa

# Steel rebars properties
E = 210000 * MPa
# Young Modulus
fyk = 450 * MPa

ferrDatSlu = dict(
    TYPE_STRUCTURE="2D",
    TOUT="OUI",
    C_INF=0.02 * mm,
    C_SUP=0.02 * mm,
    FCK=fck,
    FYK=fyk,
    EYS=E,
    TYPE_DIAGRAMME="B1",
    GAMMA_S_FOND=1.15,
    GAMMA_C_FOND=1.5,
    GAMMA_S_ACCI=1.15,
    GAMMA_C_ACCI=1.5,
    SIGS_ELS=fyk,
    SIGC_INF_ELS=fck,
    SIGC_SUP_ELS=fck,
    SIGC_ELS_QP=fck,
    ALPHA_E=15,
    CLASSE_ACIER="B",
    ALPHA_CC=1.0,
    FERR_SYME="NON",
    FERR_COMP="OUI",
    EPURE_CISA="NON",
    FERR_MIN="NON",
    RHO_ACIER=7800.0,
    WMAX_INF=0.00025 * mm,
    WMAX_SUP=0.0003 * mm,
    KT=0.4,
    PHI_INF_X=0.020 * mm,
    PHI_SUP_X=0.020 * mm,
    PHI_INF_Y=0.025 * mm,
    PHI_SUP_Y=0.025 * mm,
    UTIL_COMPR="NON",
)

reslin = COMBINAISON_FERRAILLAGE(
    reuse=reslin,
    RESULTAT=reslin,
    CARA_ELEM=elemprop,
    CODIFICATION="EC2",
    UNITE_CONTRAINTE="MPa",
    COMBINAISON=(
        _F(TYPE="ELU_FONDAMENTAL", NOM_CAS=("shearLd3", "tractLd3", "comprLd2")),
        _F(TYPE="ELS_CARACTERISTIQUE", NOM_CAS=("shearLd2", "tractLd2", "comprLd1")),
        _F(TYPE="ELS_QUASIPERMANENT", NOM_CAS=("shearLd1", "tractLd1")),
    ),
    AFFE=(_F(**ferrDatSlu),),
)

TEST_RESU(
    RESU=(
        _F(
            RESULTAT=reslin,
            NOM_CAS="shearLd1",
            NOM_CHAM="DEPL",
            CRITERE="RELATIF",
            NOM_CMP="DZ",
            GROUP_NO="Force",
            VALE_CALC=-44.2370155093861,
            VALE_REFE=-42.6,
            PRECISION=5.0e-2,
            REFERENCE="ANALYTIQUE",
        ),
        _F(
            RESULTAT=reslin,
            NOM_CAS="shearLd2",
            NOM_CHAM="DEPL",
            CRITERE="RELATIF",
            NOM_CMP="DZ",
            GROUP_NO="Force",
            VALE_CALC=-88.4740310187722,
            VALE_REFE=-85.2,
            PRECISION=5.0e-2,
            REFERENCE="ANALYTIQUE",
        ),
        _F(
            RESULTAT=reslin,
            NOM_CAS="shearLd3",
            NOM_CHAM="DEPL",
            CRITERE="RELATIF",
            NOM_CMP="DZ",
            GROUP_NO="Force",
            VALE_CALC=-132.71104652815833,
            VALE_REFE=-127.8,
            PRECISION=5.0e-2,
            REFERENCE="ANALYTIQUE",
        ),
        _F(
            RESULTAT=reslin,
            NOM_CAS="tractLd1",
            NOM_CHAM="DEPL",
            CRITERE="RELATIF",
            NOM_CMP="DY",
            GROUP_NO="Force",
            VALE_CALC=0.43695605394995746,
            VALE_REFE=0.44,
            PRECISION=5.0e-2,
            REFERENCE="ANALYTIQUE",
        ),
        _F(
            RESULTAT=reslin,
            NOM_CAS="tractLd2",
            NOM_CHAM="DEPL",
            CRITERE="RELATIF",
            NOM_CMP="DY",
            GROUP_NO="Force",
            VALE_CALC=0.8739121078999149,
            VALE_REFE=0.89,
            PRECISION=5.0e-2,
            REFERENCE="ANALYTIQUE",
        ),
        _F(
            RESULTAT=reslin,
            NOM_CAS="tractLd3",
            NOM_CHAM="DEPL",
            CRITERE="RELATIF",
            NOM_CMP="DY",
            GROUP_NO="Force",
            VALE_CALC=1.3108681618498716,
            VALE_REFE=1.33,
            PRECISION=5.0e-2,
            REFERENCE="ANALYTIQUE",
        ),
        _F(
            RESULTAT=reslin,
            NOM_CAS="comprLd1",
            NOM_CHAM="DEPL",
            CRITERE="RELATIF",
            NOM_CMP="DY",
            GROUP_NO="Force",
            VALE_CALC=-0.6554340809249358,
            VALE_REFE=-0.67,
            PRECISION=5.0e-2,
            REFERENCE="ANALYTIQUE",
        ),
        _F(
            RESULTAT=reslin,
            NOM_CAS="comprLd2",
            NOM_CHAM="DEPL",
            CRITERE="RELATIF",
            NOM_CMP="DY",
            GROUP_NO="Force",
            VALE_CALC=-1.3108681618498716,
            VALE_REFE=-1.33,
            PRECISION=5.0e-2,
            REFERENCE="ANALYTIQUE",
        ),
    )
)

TEST_RESU(
    RESU=(
        _F(
            RESULTAT=reslin,
            NOM_CAS="shearLd1",
            NOM_CHAM="FERR_ELEM",
            CRITERE="RELATIF",
            NOM_CMP="DNSXI",
            GROUP_MA="EXTREMITE",
            VALE_CALC=1.7693320535570094,
            VALE_REFE=1.7693320535570094,
            PRECISION=4.0e-2,
            REFERENCE="ANALYTIQUE",
        ),
        _F(
            RESULTAT=reslin,
            NOM_CAS="shearLd2",
            NOM_CHAM="FERR_ELEM",
            CRITERE="RELATIF",
            NOM_CMP="DNSXI",
            GROUP_MA="EXTREMITE",
            VALE_CALC=1.559402372922043,
            VALE_REFE=1.559402372922043,
            PRECISION=4.0e-2,
            REFERENCE="ANALYTIQUE",
        ),
        _F(
            RESULTAT=reslin,
            NOM_CAS="shearLd3",
            NOM_CHAM="FERR_ELEM",
            CRITERE="RELATIF",
            NOM_CMP="DNSXI",
            GROUP_MA="EXTREMITE",
            VALE_CALC=2.510024618691071,
            VALE_REFE=2.510024618691071,
            PRECISION=4.0e-2,
            REFERENCE="ANALYTIQUE",
        ),
        _F(
            RESULTAT=reslin,
            NOM_CAS="tractLd1",
            NOM_CHAM="FERR_ELEM",
            CRITERE="RELATIF",
            NOM_CMP="DNSXI",
            GROUP_MA="EXTREMITE",
            VALE_CALC=0.044884222179109694,
            VALE_REFE=0.044884222179109694,
            PRECISION=4.0e-2,
            REFERENCE="ANALYTIQUE",
        ),
        _F(
            RESULTAT=reslin,
            NOM_CAS="tractLd2",
            NOM_CHAM="FERR_ELEM",
            CRITERE="RELATIF",
            NOM_CMP="DNSXI",
            GROUP_MA="EXTREMITE",
            VALE_CALC=0.04475597860911716,
            VALE_REFE=0.04475597860911716,
            PRECISION=4.0e-2,
            REFERENCE="ANALYTIQUE",
        ),
        _F(
            RESULTAT=reslin,
            NOM_CAS="tractLd3",
            NOM_CHAM="FERR_ELEM",
            CRITERE="RELATIF",
            NOM_CMP="DNSXI",
            GROUP_MA="EXTREMITE",
            VALE_CALC=0.07203952622695935,
            VALE_REFE=0.07203952622695935,
            PRECISION=4.0e-2,
            REFERENCE="ANALYTIQUE",
        ),
        _F(
            RESULTAT=reslin,
            NOM_CAS="comprLd1",
            NOM_CHAM="FERR_ELEM",
            CRITERE="RELATIF",
            NOM_CMP="DNSXI",
            GROUP_MA="EXTREMITE",
            VALE_CALC=0.05047299448329401,
            VALE_REFE=0.05047299448329401,
            PRECISION=4.0e-2,
            REFERENCE="ANALYTIQUE",
        ),
        _F(
            RESULTAT=reslin,
            NOM_CAS="comprLd2",
            NOM_CHAM="FERR_ELEM",
            CRITERE="RELATIF",
            NOM_CMP="DNSXI",
            GROUP_MA="EXTREMITE",
            VALE_CALC=0.1083222315864857,
            VALE_REFE=0.1083222315864857,
            PRECISION=4.0e-2,
            REFERENCE="ANALYTIQUE",
        ),
        _F(
            RESULTAT=reslin,
            NOM_CAS="COMB_DIME_ACIER",
            NOM_CHAM="FERR_ELEM",
            CRITERE="RELATIF",
            NOM_CMP="DNSXI",
            GROUP_MA="EXTREMITE",
            VALE_CALC=2.510024618691071,
            VALE_REFE=2.510024618691071,
            PRECISION=4.0e-2,
            REFERENCE="ANALYTIQUE",
        ),
        _F(
            RESULTAT=reslin,
            NOM_CAS="COMB_DIME_ORDRE",
            NOM_CHAM="FERR_ELEM",
            CRITERE="RELATIF",
            NOM_CMP="DNSXI",
            GROUP_MA="EXTREMITE",
            VALE_CALC=3.0,
            VALE_REFE=3.0,
            PRECISION=4.0e-2,
            REFERENCE="ANALYTIQUE",
        ),
    )
)

FIN()
