# coding=utf-8
# --------------------------------------------------------------------
# Copyright (C) 1991 - 2025 - EDF R&D - www.code-aster.org
# This file is part of code_aster.
#
# code_aster is free software: you can redistribute it and/or modify
# it under the terms of the GNU General Public License as published by
# the Free Software Foundation, either version 3 of the License, or
# (at your option) any later version.
#
# code_aster is distributed in the hope that it will be useful,
# but WITHOUT ANY WARRANTY; without even the implied warranty of
# MERCHANTABILITY or FITNESS FOR A PARTICULAR PURPOSE.  See the
# GNU General Public License for more details.
#
# You should have received a copy of the GNU General Public License
# along with code_aster.  If not, see <http://www.gnu.org/licenses/>.
# --------------------------------------------------------------------

DEBUT(CODE="OUI", DEBUG=_F(SDVERI="OUI"))

# -----------------------------------------------------------------------
# POINTS: O     MAILLES  M30  M33
#         A              M76
#         B              M39  M40  M51
#         C              M1
#         D              M55  M56  M65
#         E              M8   M17  M18
#         F              M34  M35  M37  M41  M46  M47  M48
# -----------------------------------------------------------------------

MATER = DEFI_MATERIAU(ELAS=_F(E=1.0, NU=0.3))

MAILL = LIRE_MAILLAGE(FORMAT="MED")

MAILL = DEFI_GROUP(reuse=MAILL, MAILLAGE=MAILL, CREA_GROUP_MA=_F(NOM="TOUT", TOUT="OUI"))

MAILL = DEFI_GROUP(
    reuse=MAILL,
    MAILLAGE=MAILL,
    CREA_GROUP_MA=_F(NOM="COQUE", MAILLE=[f"M{i}" for i in range(23, 99)]),
)

CHMAT = AFFE_MATERIAU(MAILLAGE=MAILL, AFFE=_F(TOUT="OUI", MATER=MATER))

MODEL = AFFE_MODELE(MAILLAGE=MAILL, AFFE=_F(TOUT="OUI", PHENOMENE="MECANIQUE", MODELISATION="DKT"))

MAILL = MODI_MAILLAGE(reuse=MAILL, MAILLAGE=MAILL, ORIE_NORM_COQUE=_F(GROUP_MA="COQUE"))

CHARGE = AFFE_CHAR_MECA(
    MODELE=MODEL,
    DDL_IMPO=(
        _F(GROUP_NO="GRNO_ABC", DX=0.0, DY=0.0, DZ=0.0, DRX=0.0, DRY=0.0, DRZ=0.0),
        _F(GROUP_NO="GRNO_OA", DY=0.0, DRX=0.0, DRZ=0.0),
        _F(GROUP_NO="GRNO_OC", DX=0.0, DRY=0.0, DRZ=0.0),
        _F(GROUP_NO="O", DX=0.0, DY=0.0, DRX=0.0, DRY=0.0, DRZ=0.0),
    ),
    FORCE_COQUE=_F(TOUT="OUI", PRES=1.0),
)

CARELEM = AFFE_CARA_ELEM(
    MODELE=MODEL, COQUE=_F(GROUP_MA="TOUT", EPAIS=0.1, ANGL_REP=(0.0, 0.0), COQUE_NCOU=3)
)

RESU = MECA_STATIQUE(MODELE=MODEL, CHAM_MATER=CHMAT, CARA_ELEM=CARELEM, EXCIT=_F(CHARGE=CHARGE))

RESU = CALC_CHAMP(
    reuse=RESU,
    RESULTAT=RESU,
    CONTRAINTE=("SIGM_ELNO", "EFGE_ELNO"),
    DEFORMATION=("EPSI_ELGA", "EPSI_ELNO"),
)

EPSIC1S = POST_CHAMP(
    RESULTAT=RESU,
    NUME_ORDRE=1,
    EXTR_COQUE=_F(NUME_COUCHE=1, NIVE_COUCHE="SUP", NOM_CHAM=("EPSI_ELGA", "EPSI_ELNO")),
)

EPSIC1M = POST_CHAMP(
    RESULTAT=RESU,
    NUME_ORDRE=1,
    EXTR_COQUE=_F(NUME_COUCHE=1, NIVE_COUCHE="MOY", NOM_CHAM="EPSI_ELNO"),
)

EPSIC1I = POST_CHAMP(
    RESULTAT=RESU,
    NUME_ORDRE=1,
    EXTR_COQUE=_F(NUME_COUCHE=1, NIVE_COUCHE="INF", NOM_CHAM="EPSI_ELNO"),
)

EPSIC2S = POST_CHAMP(
    RESULTAT=RESU,
    NUME_ORDRE=1,
    EXTR_COQUE=_F(NUME_COUCHE=2, NIVE_COUCHE="SUP", NOM_CHAM=("EPSI_ELGA", "EPSI_ELNO")),
)

EPSIC2M = POST_CHAMP(
    RESULTAT=RESU,
    NUME_ORDRE=1,
    EXTR_COQUE=_F(NUME_COUCHE=2, NIVE_COUCHE="MOY", NOM_CHAM="EPSI_ELNO"),
)

EPSIC2I = POST_CHAMP(
    RESULTAT=RESU,
    NUME_ORDRE=1,
    EXTR_COQUE=_F(NUME_COUCHE=2, NIVE_COUCHE="INF", NOM_CHAM=("EPSI_ELGA", "EPSI_ELNO")),
)

EPSIC3S = POST_CHAMP(
    RESULTAT=RESU,
    NUME_ORDRE=1,
    EXTR_COQUE=_F(NUME_COUCHE=3, NIVE_COUCHE="SUP", NOM_CHAM="EPSI_ELNO"),
)

EPSIC3M = POST_CHAMP(
    RESULTAT=RESU,
    NUME_ORDRE=1,
    EXTR_COQUE=_F(NUME_COUCHE=3, NIVE_COUCHE="MOY", NOM_CHAM="EPSI_ELNO"),
)

EPSIC3I = POST_CHAMP(
    RESULTAT=RESU,
    NUME_ORDRE=1,
    EXTR_COQUE=_F(NUME_COUCHE=3, NIVE_COUCHE="INF", NOM_CHAM=("EPSI_ELGA", "EPSI_ELNO")),
)

IMPR_RESU(
    FORMAT="RESULTAT",
    RESU=(
        _F(RESULTAT=EPSIC1S),
        _F(RESULTAT=EPSIC1M),
        _F(RESULTAT=EPSIC1I),
        _F(RESULTAT=EPSIC2S),
        _F(RESULTAT=EPSIC2M),
        _F(RESULTAT=EPSIC2I),
        _F(RESULTAT=EPSIC3S),
        _F(RESULTAT=EPSIC3M),
        _F(RESULTAT=EPSIC3I),
    ),
)

TEST_RESU(
    RESU=(
        _F(
            NUME_ORDRE=1,
            REFERENCE="ANALYTIQUE",
            RESULTAT=RESU,
            NOM_CHAM="DEPL",
            GROUP_NO="O",
            NOM_CMP="DZ",
            VALE_CALC=-171.463311288,
            VALE_REFE=-170.6251,
            CRITERE="RELATIF",
            PRECISION=1.0e-2,
        ),
        _F(
            NUME_ORDRE=1,
            REFERENCE="ANALYTIQUE",
            RESULTAT=RESU,
            NOM_CHAM="DEPL",
            GROUP_NO="A",
            NOM_CMP="DZ",
            VALE_CALC=-1.7347234760e-17,
            VALE_REFE=0.0,
            CRITERE="ABSOLU",
            PRECISION=1.0e-10,
        ),
        _F(
            NUME_ORDRE=1,
            REFERENCE="ANALYTIQUE",
            RESULTAT=RESU,
            NOM_CHAM="DEPL",
            GROUP_NO="B",
            NOM_CMP="DZ",
            VALE_CALC=2.7755575616e-17,
            VALE_REFE=0.0,
            CRITERE="ABSOLU",
            PRECISION=1.0e-10,
        ),
        _F(
            NUME_ORDRE=1,
            REFERENCE="ANALYTIQUE",
            RESULTAT=RESU,
            NOM_CHAM="DEPL",
            GROUP_NO="C",
            NOM_CMP="DZ",
            VALE_CALC=1.3530843113e-16,
            VALE_REFE=0.0,
            CRITERE="ABSOLU",
            PRECISION=1.0e-10,
        ),
        _F(
            NUME_ORDRE=1,
            REFERENCE="ANALYTIQUE",
            RESULTAT=RESU,
            NOM_CHAM="DEPL",
            GROUP_NO="D",
            NOM_CMP="DZ",
            VALE_CALC=-96.439215210,
            VALE_REFE=-95.976600000000005,
            CRITERE="RELATIF",
            PRECISION=7.4999999999999997e-3,
        ),
        _F(
            NUME_ORDRE=1,
            REFERENCE="ANALYTIQUE",
            RESULTAT=RESU,
            NOM_CHAM="DEPL",
            GROUP_NO="E",
            NOM_CMP="DZ",
            VALE_CALC=-96.480630589,
            VALE_REFE=-95.976600000000005,
            CRITERE="RELATIF",
            PRECISION=7.4999999999999997e-3,
        ),
        _F(
            NUME_ORDRE=1,
            REFERENCE="ANALYTIQUE",
            RESULTAT=RESU,
            NOM_CHAM="DEPL",
            GROUP_NO="F",
            NOM_CMP="DZ",
            VALE_CALC=-79.243431803,
            VALE_REFE=-78.897000000000006,
            CRITERE="RELATIF",
            PRECISION=5.0000000000000001e-3,
        ),
    )
)

EFFORT = CREA_CHAMP(
    TYPE_CHAM="ELNO_SIEF_R", OPERATION="EXTR", RESULTAT=RESU, NOM_CHAM="EFGE_ELNO", NUME_ORDRE=1
)

# --------------------------------------------------------------------

RELEVE_1 = POST_RELEVE_T(
    ACTION=(
        _F(
            OPERATION="EXTRACTION",
            INTITULE="EFFORT",
            CHAM_GD=EFFORT,
            GROUP_NO=("O", "A", "B", "C", "D", "E", "F"),
            NOM_CMP=("MXX", "MYY"),
        ),
        _F(
            OPERATION="EXTRACTION",
            INTITULE="DEPL",
            RESULTAT=RESU,
            NOM_CHAM="DEPL",
            NUME_ORDRE=1,
            GROUP_NO=("O", "A", "B", "C", "D", "E", "F"),
            NOM_CMP=("DX", "DY"),
        ),
    )
)

TEST_TABLE(
    REFERENCE="ANALYTIQUE",
    PRECISION=0.029999999999999999,
    VALE_CALC=-0.083405756,
    VALE_REFE=-0.081250000000000003,
    NOM_PARA="MXX",
    TABLE=RELEVE_1,
    FILTRE=_F(NOM_PARA="NOEUD", VALE_K="19"),
)

TEST_TABLE(
    REFERENCE="ANALYTIQUE",
    PRECISION=0.03,
    VALE_CALC=-0.083359798,
    VALE_REFE=-0.081250000000000003,
    NOM_PARA="MYY",
    TABLE=RELEVE_1,
    FILTRE=_F(NOM_PARA="NOEUD", VALE_K="19"),
)

TEST_TABLE(
    REFERENCE="ANALYTIQUE",
    PRECISION=0.02,
    VALE_CALC=0.127066372,
    VALE_REFE=0.125,
    NOM_PARA="MXX",
    TABLE=RELEVE_1,
    FILTRE=_F(NOM_PARA="NOEUD", VALE_K="50"),
)

TEST_TABLE(
    REFERENCE="ANALYTIQUE",
    PRECISION=0.02,
    VALE_CALC=0.038119912,
    VALE_REFE=0.037499999999999999,
    NOM_PARA="MYY",
    TABLE=RELEVE_1,
    FILTRE=_F(NOM_PARA="NOEUD", VALE_K="50"),
)

TEST_TABLE(
    REFERENCE="ANALYTIQUE",
    PRECISION=0.05,
    VALE_CALC=0.085149397,
    VALE_REFE=0.081250000000000003,
    NOM_PARA="MXX",
    TABLE=RELEVE_1,
    FILTRE=_F(NOM_PARA="NOEUD", VALE_K="30"),
)

TEST_TABLE(
    REFERENCE="ANALYTIQUE",
    PRECISION=0.050000000000000003,
    VALE_CALC=0.085272288,
    VALE_REFE=0.081250000000000003,
    NOM_PARA="MYY",
    TABLE=RELEVE_1,
    FILTRE=_F(NOM_PARA="NOEUD", VALE_K="30"),
)

TEST_TABLE(
    REFERENCE="ANALYTIQUE",
    PRECISION=0.02,
    VALE_CALC=0.038148673,
    VALE_REFE=0.037499999999999999,
    NOM_PARA="MXX",
    TABLE=RELEVE_1,
    FILTRE=_F(NOM_PARA="NOEUD", VALE_K="1"),
)

TEST_TABLE(
    REFERENCE="ANALYTIQUE",
    PRECISION=0.02,
    VALE_CALC=0.127162242,
    VALE_REFE=0.125,
    NOM_PARA="MYY",
    TABLE=RELEVE_1,
    FILTRE=_F(NOM_PARA="NOEUD", VALE_K="1"),
)

TEST_TABLE(
    REFERENCE="ANALYTIQUE",
    PRECISION=0.070000000000000007,
    VALE_CALC=-0.031229112,
    VALE_REFE=-0.029690000000000001,
    NOM_PARA="MXX",
    TABLE=RELEVE_1,
    FILTRE=_F(NOM_PARA="NOEUD", VALE_K="39"),
)

TEST_TABLE(
    REFERENCE="ANALYTIQUE",
    PRECISION=0.035000000000000003,
    VALE_CALC=-0.053227165,
    VALE_REFE=-0.051560000000000002,
    NOM_PARA="MYY",
    TABLE=RELEVE_1,
    FILTRE=_F(NOM_PARA="NOEUD", VALE_K="39"),
)

TEST_TABLE(
    REFERENCE="ANALYTIQUE",
    PRECISION=0.035000000000000003,
    VALE_CALC=-0.053284210,
    VALE_REFE=-0.051560000000000002,
    NOM_PARA="MXX",
    TABLE=RELEVE_1,
    FILTRE=_F(NOM_PARA="NOEUD", VALE_K="10"),
)

TEST_TABLE(
    REFERENCE="ANALYTIQUE",
    PRECISION=0.070000000000000007,
    VALE_CALC=-0.031328836,
    VALE_REFE=-0.029690000000000001,
    NOM_PARA="MYY",
    TABLE=RELEVE_1,
    FILTRE=_F(NOM_PARA="NOEUD", VALE_K="10"),
)

TEST_TABLE(
    REFERENCE="ANALYTIQUE",
    PRECISION=0.035000000000000003,
    VALE_CALC=-0.030179018,
    VALE_REFE=-0.029250000000000002,
    NOM_PARA="MXX",
    TABLE=RELEVE_1,
    FILTRE=_F(NOM_PARA="NOEUD", VALE_K="27"),
)

TEST_TABLE(
    REFERENCE="ANALYTIQUE",
    PRECISION=0.044999999999999998,
    VALE_CALC=-0.030436674,
    VALE_REFE=-0.029250000000000002,
    NOM_PARA="MYY",
    TABLE=RELEVE_1,
    FILTRE=_F(NOM_PARA="NOEUD", VALE_K="27"),
)

# --------------------------------------------------------------------

RELEVE_2 = POST_RELEVE_T(
    ACTION=_F(
        OPERATION="EXTRACTION",
        INTITULE="EFFORT",
        CHAM_GD=EFFORT,
        GROUP_NO=("O", "A", "B", "C", "D", "E", "F"),
        NOM_CMP=("MXX", "MYY"),
        MOYE_NOEUD="NON",
    )
)

TEST_TABLE(
    REFERENCE="ANALYTIQUE",
    PRECISION=0.044999999999999998,
    VALE_CALC=-0.083441357,
    VALE_REFE=-0.080174700000000002,
    NOM_PARA="MXX",
    TABLE=RELEVE_2,
    FILTRE=(_F(NOM_PARA="NOEUD", VALE_K="19"), _F(NOM_PARA="MAILLE", VALE_K="52")),
)

TEST_TABLE(
    REFERENCE="ANALYTIQUE",
    PRECISION=0.040000000000000001,
    VALE_CALC=-0.083370154,
    VALE_REFE=-0.080450400000000005,
    NOM_PARA="MXX",
    TABLE=RELEVE_2,
    FILTRE=(_F(NOM_PARA="NOEUD", VALE_K="19"), _F(NOM_PARA="MAILLE", VALE_K="55")),
)

RELEVE_3 = POST_RELEVE_T(
    ACTION=_F(
        OPERATION="EXTRACTION",
        INTITULE="EFFORT",
        CHAM_GD=EFFORT,
        GROUP_MA=("M30", "M76", "M40", "M1", "M65", "M8", "M46"),
        GROUP_NO=("O", "A", "B", "C", "D", "E", "F"),
        NOM_CMP=("MXX", "MYY"),
        MOYE_NOEUD="NON",
    )
)

TEST_TABLE(
    REFERENCE="ANALYTIQUE",
    PRECISION=0.014999999999999999,
    VALE_CALC=0.088119594,
    VALE_REFE=0.087831900000000004,
    NOM_PARA="MXX",
    TABLE=RELEVE_3,
    FILTRE=_F(NOM_PARA="NOEUD", VALE_K="30"),
)

TEST_TABLE(
    REFERENCE="ANALYTIQUE",
    PRECISION=0.014999999999999999,
    VALE_CALC=-0.031659373,
    VALE_REFE=-0.0319177,
    NOM_PARA="MXX",
    TABLE=RELEVE_3,
    FILTRE=_F(NOM_PARA="NOEUD", VALE_K="39"),
)

TEST_TABLE(
    REFERENCE="ANALYTIQUE",
    PRECISION=0.014999999999999999,
    VALE_CALC=-0.024594953,
    VALE_REFE=-0.024385400000000002,
    NOM_PARA="MXX",
    TABLE=RELEVE_3,
    FILTRE=_F(NOM_PARA="NOEUD", VALE_K="27"),
)

# --------------------------------------------------------------------
TEST_RESU(
    RESU=(
        _F(
            NUME_ORDRE=1,
            POINT=1,
            RESULTAT=EPSIC1S,
            NOM_CHAM="EPSI_ELGA",
            NOM_CMP="EPXX",
            VALE_CALC=11.106936142026999,
            CRITERE="RELATIF",
            GROUP_MA="M30",
        ),
        _F(
            NUME_ORDRE=1,
            REFERENCE="AUTRE_ASTER",
            POINT=1,
            RESULTAT=EPSIC2I,
            NOM_CHAM="EPSI_ELGA",
            NOM_CMP="EPXX",
            VALE_CALC=11.106936142,
            VALE_REFE=11.106936142026999,
            CRITERE="RELATIF",
            GROUP_MA="M30",
        ),
        _F(
            NUME_ORDRE=1,
            RESULTAT=EPSIC1S,
            NOM_CHAM="EPSI_ELNO",
            GROUP_NO="O",
            NOM_CMP="EPXX",
            VALE_CALC=11.689121556359,
            CRITERE="RELATIF",
            GROUP_MA="M30",
        ),
        _F(
            NUME_ORDRE=1,
            REFERENCE="AUTRE_ASTER",
            RESULTAT=EPSIC2I,
            NOM_CHAM="EPSI_ELNO",
            GROUP_NO="O",
            NOM_CMP="EPXX",
            VALE_CALC=11.689121556,
            VALE_REFE=11.689121556359,
            CRITERE="RELATIF",
            GROUP_MA="M30",
        ),
        _F(
            NUME_ORDRE=1,
            POINT=1,
            RESULTAT=EPSIC1S,
            NOM_CHAM="EPSI_ELGA",
            NOM_CMP="EPXX",
            VALE_CALC=6.4426390657449,
            CRITERE="RELATIF",
            GROUP_MA="M55",
        ),
        _F(
            NUME_ORDRE=1,
            REFERENCE="AUTRE_ASTER",
            POINT=1,
            RESULTAT=EPSIC2I,
            NOM_CHAM="EPSI_ELGA",
            NOM_CMP="EPXX",
            VALE_CALC=6.442639066,
            VALE_REFE=6.4426390657449,
            CRITERE="RELATIF",
            GROUP_MA="M55",
        ),
        _F(
            NUME_ORDRE=1,
            RESULTAT=EPSIC1S,
            NOM_CHAM="EPSI_ELNO",
            GROUP_NO="D",
            NOM_CMP="EPXX",
            VALE_CALC=2.9674569744874,
            CRITERE="RELATIF",
            GROUP_MA="M55",
        ),
        _F(
            NUME_ORDRE=1,
            REFERENCE="AUTRE_ASTER",
            RESULTAT=EPSIC2I,
            NOM_CHAM="EPSI_ELNO",
            GROUP_NO="D",
            NOM_CMP="EPXX",
            VALE_CALC=2.967456974,
            VALE_REFE=2.9674569744874,
            CRITERE="RELATIF",
            GROUP_MA="M55",
        ),
        _F(
            NUME_ORDRE=1,
            POINT=1,
            RESULTAT=EPSIC1S,
            NOM_CHAM="EPSI_ELGA",
            NOM_CMP="EPXX",
            VALE_CALC=-20.864315098504999,
            CRITERE="RELATIF",
            GROUP_MA="M76",
        ),
        _F(
            NUME_ORDRE=1,
            REFERENCE="AUTRE_ASTER",
            POINT=1,
            RESULTAT=EPSIC2I,
            NOM_CHAM="EPSI_ELGA",
            NOM_CMP="EPXX",
            VALE_CALC=-20.864315099,
            VALE_REFE=-20.864315098504999,
            CRITERE="RELATIF",
            GROUP_MA="M76",
        ),
        _F(
            NUME_ORDRE=1,
            RESULTAT=EPSIC1S,
            NOM_CHAM="EPSI_ELNO",
            GROUP_NO="A",
            NOM_CMP="EPXX",
            VALE_CALC=-23.126079753757001,
            CRITERE="RELATIF",
            GROUP_MA="M76",
        ),
        _F(
            NUME_ORDRE=1,
            REFERENCE="AUTRE_ASTER",
            RESULTAT=EPSIC2I,
            NOM_CHAM="EPSI_ELNO",
            GROUP_NO="A",
            NOM_CMP="EPXX",
            VALE_CALC=-23.126079754,
            VALE_REFE=-23.126079753757001,
            CRITERE="RELATIF",
            GROUP_MA="M76",
        ),
        _F(
            NUME_ORDRE=1,
            POINT=1,
            RESULTAT=EPSIC2S,
            NOM_CHAM="EPSI_ELGA",
            NOM_CMP="EPXX",
            VALE_CALC=-11.106936142026999,
            CRITERE="RELATIF",
            GROUP_MA="M30",
        ),
        _F(
            NUME_ORDRE=1,
            REFERENCE="AUTRE_ASTER",
            POINT=1,
            RESULTAT=EPSIC3I,
            NOM_CHAM="EPSI_ELGA",
            NOM_CMP="EPXX",
            VALE_CALC=-11.106936142,
            VALE_REFE=-11.106936142026999,
            CRITERE="RELATIF",
            GROUP_MA="M30",
        ),
        _F(
            NUME_ORDRE=1,
            RESULTAT=EPSIC2S,
            NOM_CHAM="EPSI_ELNO",
            GROUP_NO="O",
            NOM_CMP="EPXX",
            VALE_CALC=-11.689121556359,
            CRITERE="RELATIF",
            GROUP_MA="M30",
        ),
        _F(
            NUME_ORDRE=1,
            REFERENCE="AUTRE_ASTER",
            RESULTAT=EPSIC3I,
            NOM_CHAM="EPSI_ELNO",
            GROUP_NO="O",
            NOM_CMP="EPXX",
            VALE_CALC=-11.689121556,
            VALE_REFE=-11.689121556359,
            CRITERE="RELATIF",
            GROUP_MA="M30",
        ),
        _F(
            NUME_ORDRE=1,
            POINT=1,
            RESULTAT=EPSIC2S,
            NOM_CHAM="EPSI_ELGA",
            NOM_CMP="EPXX",
            VALE_CALC=-6.4426390657449,
            CRITERE="RELATIF",
            GROUP_MA="M55",
        ),
        _F(
            NUME_ORDRE=1,
            REFERENCE="AUTRE_ASTER",
            POINT=1,
            RESULTAT=EPSIC3I,
            NOM_CHAM="EPSI_ELGA",
            NOM_CMP="EPXX",
            VALE_CALC=-6.442639066,
            VALE_REFE=-6.4426390657449,
            CRITERE="RELATIF",
            GROUP_MA="M55",
        ),
        _F(
            NUME_ORDRE=1,
            RESULTAT=EPSIC2S,
            NOM_CHAM="EPSI_ELNO",
            GROUP_NO="D",
            NOM_CMP="EPXX",
            VALE_CALC=-2.9674569744874,
            CRITERE="RELATIF",
            GROUP_MA="M55",
        ),
        _F(
            NUME_ORDRE=1,
            REFERENCE="AUTRE_ASTER",
            RESULTAT=EPSIC3I,
            NOM_CHAM="EPSI_ELNO",
            GROUP_NO="D",
            NOM_CMP="EPXX",
            VALE_CALC=-2.967456974,
            VALE_REFE=-2.9674569744874,
            CRITERE="RELATIF",
            GROUP_MA="M55",
        ),
        _F(
            NUME_ORDRE=1,
            POINT=1,
            RESULTAT=EPSIC2S,
            NOM_CHAM="EPSI_ELGA",
            NOM_CMP="EPXX",
            VALE_CALC=20.864315098504999,
            CRITERE="RELATIF",
            GROUP_MA="M76",
        ),
        _F(
            NUME_ORDRE=1,
            REFERENCE="AUTRE_ASTER",
            POINT=1,
            RESULTAT=EPSIC3I,
            NOM_CHAM="EPSI_ELGA",
            NOM_CMP="EPXX",
            VALE_CALC=20.864315099,
            VALE_REFE=20.864315098504999,
            CRITERE="RELATIF",
            GROUP_MA="M76",
        ),
        _F(
            NUME_ORDRE=1,
            RESULTAT=EPSIC2S,
            NOM_CHAM="EPSI_ELNO",
            GROUP_NO="A",
            NOM_CMP="EPXX",
            VALE_CALC=23.126079753757001,
            CRITERE="RELATIF",
            GROUP_MA="M76",
        ),
        _F(
            NUME_ORDRE=1,
            REFERENCE="AUTRE_ASTER",
            RESULTAT=EPSIC3I,
            NOM_CHAM="EPSI_ELNO",
            GROUP_NO="A",
            NOM_CMP="EPXX",
            VALE_CALC=23.126079754,
            VALE_REFE=23.126079753757001,
            CRITERE="RELATIF",
            GROUP_MA="M76",
        ),
        _F(
            NUME_ORDRE=1,
            RESULTAT=EPSIC2M,
            NOM_CHAM="EPSI_ELNO",
            GROUP_NO="O",
            NOM_CMP="EPXX",
            VALE_CALC=0.0,
            CRITERE="ABSOLU",
            GROUP_MA="M30",
        ),
        _F(
            NUME_ORDRE=1,
            RESULTAT=EPSIC2M,
            NOM_CHAM="EPSI_ELNO",
            GROUP_NO="D",
            NOM_CMP="EPXX",
            VALE_CALC=0.0,
            CRITERE="ABSOLU",
            GROUP_MA="M55",
        ),
        _F(
            NUME_ORDRE=1,
            RESULTAT=EPSIC2M,
            NOM_CHAM="EPSI_ELNO",
            GROUP_NO="A",
            NOM_CMP="EPXX",
            VALE_CALC=0.0,
            CRITERE="ABSOLU",
            GROUP_MA="M76",
        ),
    )
)


VOLUM1 = POST_ELEM(
    RESULTAT=RESU,
    VOLUMOGRAMME=_F(
        NOM_CMP="SIYY",
        CARA_ELEM=CARELEM,
        TOUT="OUI",
        TYPE_MAILLE="2D",
        NOM_CHAM="SIEF_ELGA",
        NORME="RELATIF",
        NB_INTERV=8,
    ),
    MODELE=MODEL,
)

IMPR_TABLE(TABLE=VOLUM1, FORMAT_R="E18.11")

TEST_TABLE(
    VALE_CALC=11.5306746033,
    NOM_PARA="DISTRIBUTION",
    TABLE=VOLUM1,
    FILTRE=(
        _F(NOM_PARA="NOM_CMP", VALE_K="SIYY"),
        _F(NOM_PARA="NUME_ORDRE", VALE_I=1),
        _F(NOM_PARA="INTERVALLE", VALE_I=3),
    ),
)

TEST_TABLE(
    VALE_CALC=0.315642305452,
    NOM_PARA="DISTRIBUTION",
    TABLE=VOLUM1,
    FILTRE=(
        _F(NOM_PARA="NOM_CMP", VALE_K="SIYY"),
        _F(NOM_PARA="NUME_ORDRE", VALE_I=1),
        _F(NOM_PARA="INTERVALLE", VALE_I=8),
    ),
)
# =================================================
#
# Test SIGM_ELNO
#
# =================================================


VOLUM2 = POST_ELEM(
    RESULTAT=RESU,
    MODELE=MODEL,
    VOLUMOGRAMME=_F(
        NOM_CMP="SIYY",
        GROUP_MA="COQUE",
        CARA_ELEM=CARELEM,
        NOM_CHAM="SIGM_ELNO",
        NORME="ABSOLU",
        NB_INTERV=8,
    ),
)

IMPR_TABLE(TABLE=VOLUM2)

TEST_TABLE(
    VALE_CALC=0.00820413805787,
    VALE_REFE=0.00820413805787,
    REFERENCE="NON_DEFINI",
    PRECISION=1.0e-3,
    NOM_PARA="DISTRIBUTION",
    TABLE=VOLUM2,
    FILTRE=(
        _F(NOM_PARA="NOM_CMP", VALE_K="SIYY"),
        _F(NOM_PARA="NUME_ORDRE", VALE_I=1),
        _F(NOM_PARA="INTERVALLE", VALE_I=6),
    ),
)

TEST_TABLE(
    VALE_CALC=0.00174403398535,
    VALE_REFE=0.00174403398535,
    REFERENCE="NON_DEFINI",
    PRECISION=1.0e-3,
    NOM_PARA="DISTRIBUTION",
    TABLE=VOLUM2,
    FILTRE=(
        _F(NOM_PARA="NOM_CMP", VALE_K="SIYY"),
        _F(NOM_PARA="NUME_ORDRE", VALE_I=1),
        _F(NOM_PARA="INTERVALLE", VALE_I=2),
    ),
)

# =================================================
#
# Test du volume
#
# =================================================

TEST_TABLE(TABLE=VOLUM2, NOM_PARA="DISTRIBUTION", TYPE_TEST="SOMM_ABS", VALE_CALC=0.0782172359038)


FIN()

FIN()
