# coding=utf-8
# --------------------------------------------------------------------
# Copyright (C) 1991 - 2025 - EDF R&D - www.code-aster.org
# This file is part of code_aster.
#
# code_aster is free software: you can redistribute it and/or modify
# it under the terms of the GNU General Public License as published by
# the Free Software Foundation, either version 3 of the License, or
# (at your option) any later version.
#
# code_aster is distributed in the hope that it will be useful,
# but WITHOUT ANY WARRANTY; without even the implied warranty of
# MERCHANTABILITY or FITNESS FOR A PARTICULAR PURPOSE.  See the
# GNU General Public License for more details.
#
# You should have received a copy of the GNU General Public License
# along with code_aster.  If not, see <http://www.gnu.org/licenses/>.
# --------------------------------------------------------------------

DEBUT(CODE="OUI", DEBUG=_F(SDVERI="OUI"))

E = 1.0e11

NU = 0.25

H = 5.0e-2

MATER = DEFI_MATERIAU(ELAS=_F(E=E, NU=NU))

MAILL = LIRE_MAILLAGE(FORMAT="MED")

MAILL = DEFI_GROUP(reuse=MAILL, MAILLAGE=MAILL, CREA_GROUP_MA=_F(NOM="TOUT", TOUT="OUI"))

CHMAT = AFFE_MATERIAU(MAILLAGE=MAILL, AFFE=_F(TOUT="OUI", MATER=MATER))

MOD = AFFE_MODELE(MAILLAGE=MAILL, AFFE=_F(TOUT="OUI", MODELISATION="DST", PHENOMENE="MECANIQUE"))

CARAC = AFFE_CARA_ELEM(MODELE=MOD, COQUE=_F(GROUP_MA="TOUT", EPAIS=H))

CHARG = AFFE_CHAR_MECA(
    MODELE=MOD, DDL_IMPO=_F(GROUP_NO=("AD",), DX=0.0, DY=0.0, DZ=0.0, DRX=0.0, DRY=0.0, DRZ=0.0)
)

# ---------------------------------------------------------------------
# FORCES DE SENS OPPOSEES  PERPENDICULAIRES A LA PLAQUE

CHARG1 = AFFE_CHAR_MECA(
    MODELE=MOD, FORCE_NODALE=(_F(GROUP_NO="B", FZ=-1.0), _F(GROUP_NO="C", FZ=1.0))
)

# ---------------------------------------------------------------------
# FORCES DE MEME SENS PERPENDICULAIRES A LA PLAQUE
#         S(FZ)=2

CHARG2 = AFFE_CHAR_MECA(
    MODELE=MOD, FORCE_NODALE=(_F(GROUP_NO="B", FZ=1.0), _F(GROUP_NO="C", FZ=1.0))
)

# ---------------------------------------------------------------------

RESU1 = MECA_STATIQUE(
    MODELE=MOD, CARA_ELEM=CARAC, CHAM_MATER=CHMAT, EXCIT=(_F(CHARGE=CHARG), _F(CHARGE=CHARG1))
)

RESU1 = CALC_CHAMP(reuse=RESU1, RESULTAT=RESU1, FORCE="FORC_NODA")

FORC1 = POST_RELEVE_T(
    ACTION=(
        _F(
            OPERATION="EXTRACTION",
            INTITULE="Reactions",
            RESULTAT=RESU1,
            NOM_CHAM="FORC_NODA",
            GROUP_NO=("AD",),
            POINT=(0, 0, 0),
            RESULTANTE=("DX", "DY", "DZ"),
            MOMENT=("DRX", "DRY", "DRZ"),
        ),
    )
)

IMPR_TABLE(TABLE=FORC1)
# ---------------------------------------------------------------------

RESU2 = MECA_STATIQUE(
    MODELE=MOD, CARA_ELEM=CARAC, CHAM_MATER=CHMAT, EXCIT=(_F(CHARGE=CHARG), _F(CHARGE=CHARG2))
)

RESU2 = CALC_CHAMP(reuse=RESU2, RESULTAT=RESU2, FORCE="FORC_NODA")

FORC2 = POST_RELEVE_T(
    ACTION=(
        _F(
            OPERATION="EXTRACTION",
            INTITULE="Reactions",
            RESULTAT=RESU2,
            NOM_CHAM="FORC_NODA",
            GROUP_NO=("AD",),
            POINT=(0, 0, 0),
            RESULTANTE=("DX", "DY", "DZ"),
            MOMENT=("DRX", "DRY", "DRZ"),
        ),
    )
)

IMPR_TABLE(TABLE=FORC2)

# ---------------------------------------------------------------------

#

TEST_RESU(
    RESU=(
        _F(
            INST=0.0,
            REFERENCE="ANALYTIQUE",
            RESULTAT=RESU1,
            NOM_CHAM="DEPL",
            GROUP_NO="N13",
            NOM_CMP="DZ",
            VALE_CALC=-3.52480262e-06,
            VALE_REFE=-3.537e-06,
            CRITERE="RELATIF",
            PRECISION=5.0e-3,
        ),
        _F(
            INST=0.0,
            REFERENCE="ANALYTIQUE",
            RESULTAT=RESU1,
            NOM_CHAM="DEPL",
            GROUP_NO="N39",
            NOM_CMP="DZ",
            VALE_CALC=-6.138635845248e-17,
            VALE_REFE=0.0,
            CRITERE="ABSOLU",
            PRECISION=1.0e-12,
        ),
        _F(
            INST=0.0,
            REFERENCE="ANALYTIQUE",
            RESULTAT=RESU1,
            NOM_CHAM="DEPL",
            GROUP_NO="N65",
            NOM_CMP="DZ",
            VALE_CALC=3.52480262e-06,
            VALE_REFE=3.537e-06,
            CRITERE="RELATIF",
            PRECISION=5.0e-3,
        ),
        _F(
            INST=0.0,
            REFERENCE="ANALYTIQUE",
            RESULTAT=RESU2,
            NOM_CHAM="DEPL",
            GROUP_NO="N13",
            NOM_CMP="DZ",
            VALE_CALC=1.09499326e-03,
            VALE_REFE=1.1059e-3,
            CRITERE="RELATIF",
            PRECISION=1.0e-2,
        ),
        _F(
            INST=0.0,
            REFERENCE="ANALYTIQUE",
            RESULTAT=RESU2,
            NOM_CHAM="DEPL",
            GROUP_NO="N39",
            NOM_CMP="DZ",
            VALE_CALC=1.09500938e-03,
            VALE_REFE=1.1059e-3,
            CRITERE="RELATIF",
            PRECISION=1.0e-2,
        ),
        _F(
            INST=0.0,
            REFERENCE="ANALYTIQUE",
            RESULTAT=RESU2,
            NOM_CHAM="DEPL",
            GROUP_NO="N65",
            NOM_CMP="DZ",
            VALE_CALC=1.09499326e-03,
            VALE_REFE=1.1059e-3,
            CRITERE="RELATIF",
            PRECISION=1.0e-2,
        ),
    )
)

TEST_TABLE(
    CRITERE="RELATIF",
    REFERENCE="ANALYTIQUE",
    PRECISION=1.0e-08,
    VALE_CALC=-2.0,
    VALE_REFE=-2,
    NOM_PARA="RESULT_Z",
    TABLE=FORC2,
)

TEST_TABLE(
    CRITERE="ABSOLU",
    REFERENCE="ANALYTIQUE",
    PRECISION=1.0e-08,
    VALE_CALC=8.71480665e-12,
    VALE_REFE=0,
    NOM_PARA="MOMENT_X",
    TABLE=FORC2,
)

TEST_TABLE(
    CRITERE="RELATIF",
    REFERENCE="ANALYTIQUE",
    PRECISION=1.0e-08,
    VALE_CALC=24.0,
    VALE_REFE=24.0,
    NOM_PARA="MOMENT_Y",
    TABLE=FORC2,
)

TEST_TABLE(
    CRITERE="ABSOLU",
    REFERENCE="ANALYTIQUE",
    PRECISION=1.0e-08,
    VALE_CALC=-9.39248679e-14,
    VALE_REFE=0.0,
    NOM_PARA="RESULT_Z",
    TABLE=FORC1,
)

TEST_TABLE(
    CRITERE="RELATIF",
    REFERENCE="ANALYTIQUE",
    PRECISION=1.0e-08,
    VALE_CALC=-1.0,
    VALE_REFE=-1.0,
    NOM_PARA="MOMENT_X",
    TABLE=FORC1,
)

TEST_TABLE(
    CRITERE="ABSOLU",
    REFERENCE="ANALYTIQUE",
    PRECISION=1.0e-08,
    VALE_CALC=-9.18820575e-13,
    VALE_REFE=0,
    NOM_PARA="MOMENT_Y",
    TABLE=FORC1,
)

FIN()
#
