# coding=utf-8
# --------------------------------------------------------------------
# Copyright (C) 1991 - 2025 - EDF R&D - www.code-aster.org
# This file is part of code_aster.
#
# code_aster is free software: you can redistribute it and/or modify
# it under the terms of the GNU General Public License as published by
# the Free Software Foundation, either version 3 of the License, or
# (at your option) any later version.
#
# code_aster is distributed in the hope that it will be useful,
# but WITHOUT ANY WARRANTY; without even the implied warranty of
# MERCHANTABILITY or FITNESS FOR A PARTICULAR PURPOSE.  See the
# GNU General Public License for more details.
#
# You should have received a copy of the GNU General Public License
# along with code_aster.  If not, see <http://www.gnu.org/licenses/>.
# --------------------------------------------------------------------

#        ENTRE DEUX SEMI-ESPACES ELASTIQUES ISOTROPES
#        B/A = 2.
#

DEBUT(CODE="OUI", ERREUR=_F(ALARME="EXCEPTION"))

MA = LIRE_MAILLAGE(VERI_MAIL=_F(VERIF="OUI"), FORMAT="MED")

MO = AFFE_MODELE(MAILLAGE=MA, AFFE=_F(TOUT="OUI", PHENOMENE="MECANIQUE", MODELISATION="3D"))

MA = DEFI_GROUP(
    reuse=MA,
    MAILLAGE=MA,
    CREA_GROUP_NO=(
        _F(
            NOM="FOND",
            NOEUD=(
                "N71",
                "N68",
                "N93",
                "N90",
                "N89",
                "N84",
                "N115",
                "N112",
                "N111",
                "N106",
                "N357",
                "N354",
                "N368",
                "N365",
                "N379",
                "N376",
                "N389",
            ),
        ),
    ),
)

# Barsoum
MA = MODI_MAILLAGE(
    reuse=MA, MAILLAGE=MA, MODI_MAILLE=_F(OPTION="NOEUD_QUART", GROUP_NO_FOND="FOND")
)

MAT1 = DEFI_MATERIAU(ELAS=_F(E=198000.0, NU=0.1))

MAT2 = DEFI_MATERIAU(ELAS=_F(E=594000.0, NU=0.1))

CHMAT = AFFE_MATERIAU(
    MAILLAGE=MA, AFFE=(_F(GROUP_MA="VMAT1", MATER=MAT1), _F(GROUP_MA="VMAT2", MATER=MAT2))
)

# ------------------------------------------------------------------

MA = DEFI_GROUP(
    reuse=MA,
    MAILLAGE=MA,
    CREA_GROUP_NO=_F(GROUP_MA=("LFF", "LEVREINF", "LFFS", "LEVREINS", "SAV_S", "SSUP_S")),
)

CH = AFFE_CHAR_MECA(
    MODELE=MO,
    DDL_IMPO=(
        _F(GROUP_NO="SAV_S", DY=0.0),
        _F(GROUP_NO="PORIG", DX=0.0),
        _F(GROUP_NO="SSUP_S", DZ=0.0),
        _F(GROUP_NO="LEVREINF", DZ=0.0),
    ),
    PRES_REP=_F(GROUP_MA="LEVREINS", PRES=1.0),
)

CHAMDEPL = MECA_STATIQUE(MODELE=MO, CHAM_MATER=CHMAT, EXCIT=_F(CHARGE=CH))

FISS1 = DEFI_FOND_FISS(
    MAILLAGE=MA, SYME="OUI", FOND_FISS=_F(GROUP_MA=("LFF",)), LEVRE_SUP=_F(GROUP_MA="LEVREINS")
)

#
# ----------------------------------------------------------------------
#                           COURONNE 1
# ----------------------------------------------------------------------
#
# DEFINITION DES RAYONS DES COURONNES DU CHAMPS THETA
#
#
RAY_INF1 = DEFI_CONSTANTE(VALE=0.045)

RAY_SUP1 = DEFI_CONSTANTE(VALE=0.09)

MOD_T1 = DEFI_CONSTANTE(VALE=1.0)

#
# CALCUL DE G LOCAL AVEC THETA_LEGENDRE
# -------------------------------------

GLO1_LE5 = CALC_G(
    RESULTAT=CHAMDEPL,
    OPTION="G",
    THETA=_F(FISSURE=FISS1, R_INF_FO=RAY_INF1, R_SUP_FO=RAY_SUP1, DISCRETISATION="LEGENDRE"),
)

#
# ----------------------------------------------------------------------
#                           COURONNE 2
# ----------------------------------------------------------------------
#
# DEFINITION DES RAYONS DES COURONNES DU CHAMPS THETA
#
#
RAY_INF2 = DEFI_CONSTANTE(VALE=0.08)

RAY_SUP2 = DEFI_CONSTANTE(VALE=0.15)

MOD_T2 = DEFI_CONSTANTE(VALE=1.0)

#
# CALCUL DE G LOCAL AVEC THETA_LEGENDRE
# -------------------------------------

GLO2_LE5 = CALC_G(
    RESULTAT=CHAMDEPL,
    OPTION="G",
    THETA=_F(FISSURE=FISS1, R_INF_FO=RAY_INF2, R_SUP_FO=RAY_SUP2, DISCRETISATION="LEGENDRE"),
)

#
# IMPRESSION DES RESULTATS
# ------------------------
# la solution analytique est donnée par MURAKAMI (cf case 9.70)

TEST_TABLE(
    PRECISION=0.13,
    VALE_CALC=4.576277775229887e-06,
    VALE_REFE=5.2055000000000004e-06,
    REFERENCE="ANALYTIQUE",
    NOM_PARA="G",
    TABLE=GLO1_LE5,
    FILTRE=_F(NOM_PARA="NOEUD", VALE_K="71"),
)

TEST_TABLE(
    PRECISION=0.14,
    VALE_CALC=4.693362018225326e-06,
    VALE_REFE=5.3991999999999999e-06,
    REFERENCE="ANALYTIQUE",
    NOM_PARA="G",
    TABLE=GLO1_LE5,
    FILTRE=_F(NOM_PARA="NOEUD", VALE_K="68"),
)

TEST_TABLE(
    PRECISION=0.080000000000000002,
    VALE_CALC=6.475944181279695e-06,
    VALE_REFE=6.9762000000000002e-06,
    REFERENCE="ANALYTIQUE",
    NOM_PARA="G",
    TABLE=GLO1_LE5,
    FILTRE=_F(NOM_PARA="NOEUD", VALE_K="112"),
)

TEST_TABLE(
    PRECISION=0.080000000000000002,
    VALE_CALC=6.874636740724916e-06,
    VALE_REFE=6.4492e-06,
    REFERENCE="ANALYTIQUE",
    NOM_PARA="G",
    TABLE=GLO1_LE5,
    FILTRE=_F(NOM_PARA="NOEUD", VALE_K="106"),
)

TEST_TABLE(
    PRECISION=0.12,
    VALE_CALC=6.8936398348183065e-06,
    VALE_REFE=6.2103999999999999e-06,
    REFERENCE="ANALYTIQUE",
    NOM_PARA="G",
    TABLE=GLO1_LE5,
    FILTRE=_F(NOM_PARA="NOEUD", VALE_K="357"),
)

TEST_TABLE(
    PRECISION=0.14,
    VALE_CALC=4.486301856340327e-06,
    VALE_REFE=5.2055000000000004e-06,
    REFERENCE="ANALYTIQUE",
    NOM_PARA="G",
    TABLE=GLO2_LE5,
    FILTRE=_F(NOM_PARA="NOEUD", VALE_K="71"),
)

TEST_TABLE(
    PRECISION=0.14,
    VALE_CALC=4.665533430710718e-06,
    VALE_REFE=5.3991999999999999e-06,
    REFERENCE="ANALYTIQUE",
    NOM_PARA="G",
    TABLE=GLO2_LE5,
    FILTRE=_F(NOM_PARA="NOEUD", VALE_K="68"),
)

TEST_TABLE(
    PRECISION=0.080000000000000002,
    VALE_CALC=6.48303801781046e-06,
    VALE_REFE=6.9762000000000002e-06,
    REFERENCE="ANALYTIQUE",
    NOM_PARA="G",
    TABLE=GLO2_LE5,
    FILTRE=_F(NOM_PARA="NOEUD", VALE_K="112"),
)

TEST_TABLE(
    PRECISION=0.080000000000000002,
    VALE_CALC=6.8845129187000655e-06,
    VALE_REFE=6.4492e-06,
    REFERENCE="ANALYTIQUE",
    NOM_PARA="G",
    TABLE=GLO2_LE5,
    FILTRE=_F(NOM_PARA="NOEUD", VALE_K="106"),
)

TEST_TABLE(
    PRECISION=0.12,
    VALE_CALC=6.910551823284101e-06,
    VALE_REFE=6.2103999999999999e-06,
    REFERENCE="ANALYTIQUE",
    NOM_PARA="G",
    TABLE=GLO2_LE5,
    FILTRE=_F(NOM_PARA="NOEUD", VALE_K="357"),
)

FIN()
#
