# coding=utf-8
# --------------------------------------------------------------------
# Copyright (C) 1991 - 2025 - EDF R&D - www.code-aster.org
# This file is part of code_aster.
#
# code_aster is free software: you can redistribute it and/or modify
# it under the terms of the GNU General Public License as published by
# the Free Software Foundation, either version 3 of the License, or
# (at your option) any later version.
#
# code_aster is distributed in the hope that it will be useful,
# but WITHOUT ANY WARRANTY; without even the implied warranty of
# MERCHANTABILITY or FITNESS FOR A PARTICULAR PURPOSE.  See the
# GNU General Public License for more details.
#
# You should have received a copy of the GNU General Public License
# along with code_aster.  If not, see <http://www.gnu.org/licenses/>.
# --------------------------------------------------------------------

# CAS_TEST__: SSLV04F
#
# ----------------------------------------------------------------------
# SSLV04 F                  COMMANDES                           22/08/91
# CYLINDRE CREUX EN CONTRAINTES PLANES
#
# MODELISATION : ELEMENTS MECANIQUE C_PLAN (TRIA6 QUAD8)
# MAILLAGE     : ALIBABA > ASTER
# ----------------------------------------------------------------------
# GROUPES DE NOEUDS ET MAILLES: A B C D E F
#              BORDAB=GRNM11    FACEEF=GRMA12     FACEAE=GRMA13
# ----------------------------------------------------------------------
#

DEBUT(CODE="OUI", DEBUG=_F(SDVERI="OUI"))

M = LIRE_MAILLAGE(FORMAT="MED")

MO = AFFE_MODELE(MAILLAGE=M, AFFE=_F(TOUT="OUI", PHENOMENE="MECANIQUE", MODELISATION="C_PLAN"))

MA = DEFI_MATERIAU(ELAS=_F(E=200000.0, NU=0.3, ALPHA=0.0))

CM = AFFE_MATERIAU(MAILLAGE=M, AFFE=_F(TOUT="OUI", MATER=MA))

CH = AFFE_CHAR_MECA(
    MODELE=MO,
    DDL_IMPO=_F(GROUP_NO="GRNM11", DX=0.0),
    FACE_IMPO=_F(GROUP_MA="GRMA12", DNOR=0.0),
    PRES_REP=_F(GROUP_MA="GRMA13", PRES=60.0),
)

RESU = MECA_STATIQUE(MODELE=MO, CHAM_MATER=CM, EXCIT=_F(CHARGE=CH))

RESU = CALC_CHAMP(reuse=RESU, RESULTAT=RESU, NUME_ORDRE=1, DEFORMATION=("EPSI_ELNO"))


RESU = CALC_CHAMP(reuse=RESU, RESULTAT=RESU, NUME_ORDRE=1, CONTRAINTE=("SIGM_ELNO"))


TR1 = POST_RELEVE_T(
    ACTION=_F(
        INTITULE="EXT_SIGM",
        GROUP_NO=("A", "B", "C", "D", "E", "F"),
        RESULTAT=RESU,
        NOM_CHAM="SIGM_ELNO",
        NUME_ORDRE=1,
        NOM_CMP=("SIXX", "SIYY", "SIZZ", "SIXY"),
        OPERATION="EXTRACTION",
    )
)

TEST_RESU(
    RESU=(
        _F(
            NUME_ORDRE=1,
            GROUP_NO="A",
            RESULTAT=RESU,
            NOM_CHAM="DEPL",
            NOM_CMP="DY",
            VALE_CALC=5.8944571966929e-05,
            VALE_REFE=5.8944571966929e-05,
            REFERENCE="ANALYTIQUE",
            PRECISION=1e-3,
            CRITERE="RELATIF",
        ),
        _F(
            NUME_ORDRE=1,
            GROUP_NO="A",
            RESULTAT=RESU,
            NOM_CHAM="DEPL",
            NOM_CMP="DX",
            VALE_CALC=0.0,
            VALE_REFE=0.0,
            REFERENCE="ANALYTIQUE",
            PRECISION=1e-4,
            CRITERE="ABSOLU",
        ),
        _F(
            NUME_ORDRE=1,
            GROUP_NO="B",
            RESULTAT=RESU,
            NOM_CHAM="DEPL",
            NOM_CMP="DY",
            VALE_CALC=3.9973788020047e-05,
            VALE_REFE=4e-05,
            REFERENCE="ANALYTIQUE",
            PRECISION=1e-3,
            CRITERE="RELATIF",
        ),
        _F(
            NUME_ORDRE=1,
            GROUP_NO="B",
            RESULTAT=RESU,
            NOM_CHAM="DEPL",
            NOM_CMP="DX",
            VALE_CALC=0.0,
            VALE_REFE=0.0,
            REFERENCE="ANALYTIQUE",
            PRECISION=1e-4,
            CRITERE="ABSOLU",
        ),
        _F(
            NUME_ORDRE=1,
            GROUP_NO="E",
            RESULTAT=RESU,
            NOM_CHAM="DEPL",
            NOM_CMP="DY",
            VALE_CALC=4.1681359209095e-05,
            VALE_REFE=4.17193e-05,
            REFERENCE="ANALYTIQUE",
            PRECISION=1e-3,
            CRITERE="RELATIF",
        ),
        _F(
            NUME_ORDRE=1,
            GROUP_NO="E",
            RESULTAT=RESU,
            NOM_CHAM="DEPL",
            NOM_CMP="DX",
            VALE_CALC=-4.1681359209095e-05,
            VALE_REFE=-4.17193e-05,
            REFERENCE="ANALYTIQUE",
            PRECISION=1e-3,
            CRITERE="RELATIF",
        ),
        _F(
            NUME_ORDRE=1,
            GROUP_NO="F",
            RESULTAT=RESU,
            NOM_CHAM="DEPL",
            NOM_CMP="DY",
            VALE_CALC=2.8265508081495e-05,
            VALE_REFE=2.82843e-05,
            REFERENCE="ANALYTIQUE",
            PRECISION=1e-3,
            CRITERE="RELATIF",
        ),
        _F(
            NUME_ORDRE=1,
            GROUP_NO="F",
            RESULTAT=RESU,
            NOM_CHAM="DEPL",
            NOM_CMP="DX",
            VALE_CALC=-2.8265508081495e-05,
            VALE_REFE=-2.82843e-05,
            REFERENCE="ANALYTIQUE",
            PRECISION=1e-3,
            CRITERE="RELATIF",
        ),
        _F(
            NUME_ORDRE=1,
            GROUP_NO="A",
            RESULTAT=RESU,
            NOM_CHAM="EPSI_ELNO",
            NOM_CMP="EPXX",
            VALE_CALC=5.87240417e-04,
            VALE_REFE=5.9e-4,
            REFERENCE="ANALYTIQUE",
            CRITERE="RELATIF",
            PRECISION=1.0e-2,
            GROUP_MA="M1",
        ),
        _F(
            NUME_ORDRE=1,
            GROUP_NO="A",
            RESULTAT=RESU,
            NOM_CHAM="EPSI_ELNO",
            NOM_CMP="EPYY",
            VALE_CALC=-4.46724310e-04,
            VALE_REFE=-4.4999999999999999e-4,
            REFERENCE="ANALYTIQUE",
            CRITERE="RELATIF",
            PRECISION=1.0e-2,
            GROUP_MA="M1",
        ),
        _F(
            NUME_ORDRE=1,
            GROUP_NO="A",
            RESULTAT=RESU,
            NOM_CHAM="EPSI_ELNO",
            NOM_CMP="EPZZ",
            VALE_CALC=-6.02211886e-05,
            VALE_REFE=0.0,
            REFERENCE="ANALYTIQUE",
            CRITERE="ABSOLU",
            PRECISION=1.0e-2,
            GROUP_MA="M1",
        ),
        _F(
            NUME_ORDRE=1,
            GROUP_NO="A",
            RESULTAT=RESU,
            NOM_CHAM="EPSI_ELNO",
            NOM_CMP="EPXY",
            VALE_CALC=1.58640093e-06,
            VALE_REFE=0.0,
            REFERENCE="ANALYTIQUE",
            CRITERE="ABSOLU",
            PRECISION=1.0e-2,
            GROUP_MA="M1",
        ),
        _F(
            NUME_ORDRE=1,
            GROUP_NO="B",
            RESULTAT=RESU,
            NOM_CHAM="EPSI_ELNO",
            NOM_CMP="EPXX",
            VALE_CALC=1.99769157e-04,
            VALE_REFE=2.0000000000000001e-4,
            REFERENCE="ANALYTIQUE",
            CRITERE="RELATIF",
            PRECISION=1.0e-2,
            GROUP_MA="M151",
        ),
        _F(
            NUME_ORDRE=1,
            GROUP_NO="B",
            RESULTAT=RESU,
            NOM_CHAM="EPSI_ELNO",
            NOM_CMP="EPYY",
            VALE_CALC=-5.95730699e-05,
            VALE_REFE=-6.0000000000000002e-05,
            REFERENCE="ANALYTIQUE",
            CRITERE="ABSOLU",
            PRECISION=1.0e-2,
            GROUP_MA="M151",
        ),
        _F(
            NUME_ORDRE=1,
            GROUP_NO="B",
            RESULTAT=RESU,
            NOM_CHAM="EPSI_ELNO",
            NOM_CMP="EPZZ",
            VALE_CALC=-6.00840373e-05,
            VALE_REFE=0.0,
            REFERENCE="ANALYTIQUE",
            CRITERE="ABSOLU",
            PRECISION=1.0e-2,
            GROUP_MA="M151",
        ),
        _F(
            NUME_ORDRE=1,
            GROUP_NO="B",
            RESULTAT=RESU,
            NOM_CHAM="EPSI_ELNO",
            NOM_CMP="EPXY",
            VALE_CALC=-1.17598476e-07,
            VALE_REFE=0.0,
            REFERENCE="ANALYTIQUE",
            CRITERE="ABSOLU",
            PRECISION=1.0e-2,
            GROUP_MA="M151",
        ),
        _F(
            NUME_ORDRE=1,
            GROUP_NO="E",
            RESULTAT=RESU,
            NOM_CHAM="EPSI_ELNO",
            NOM_CMP="EPXX",
            VALE_CALC=7.02044537e-05,
            VALE_REFE=6.9999999999999994e-05,
            REFERENCE="ANALYTIQUE",
            CRITERE="RELATIF",
            PRECISION=1.0e-2,
            GROUP_MA="M75",
        ),
        _F(
            NUME_ORDRE=1,
            GROUP_NO="E",
            RESULTAT=RESU,
            NOM_CHAM="EPSI_ELNO",
            NOM_CMP="EPYY",
            VALE_CALC=7.02338843e-05,
            VALE_REFE=6.9999999999999994e-05,
            REFERENCE="ANALYTIQUE",
            CRITERE="RELATIF",
            PRECISION=1.0e-2,
            GROUP_MA="M75",
        ),
        _F(
            NUME_ORDRE=1,
            GROUP_NO="E",
            RESULTAT=RESU,
            NOM_CHAM="EPSI_ELNO",
            NOM_CMP="EPZZ",
            VALE_CALC=-6.01878591e-05,
            VALE_REFE=0.0,
            REFERENCE="ANALYTIQUE",
            CRITERE="ABSOLU",
            PRECISION=1.0e-2,
            GROUP_MA="M75",
        ),
        _F(
            NUME_ORDRE=1,
            GROUP_NO="E",
            RESULTAT=RESU,
            NOM_CHAM="EPSI_ELNO",
            NOM_CMP="EPXY",
            VALE_CALC=5.18856520e-04,
            VALE_REFE=5.1999999999999995e-4,
            REFERENCE="ANALYTIQUE",
            CRITERE="RELATIF",
            PRECISION=1.0e-2,
            GROUP_MA="M75",
        ),
        _F(
            NUME_ORDRE=1,
            GROUP_NO="F",
            RESULTAT=RESU,
            NOM_CHAM="EPSI_ELNO",
            NOM_CMP="EPXX",
            VALE_CALC=7.00817225e-05,
            VALE_REFE=6.9999999999999994e-05,
            REFERENCE="ANALYTIQUE",
            CRITERE="RELATIF",
            PRECISION=1.0e-2,
            GROUP_MA="M223",
        ),
        _F(
            NUME_ORDRE=1,
            GROUP_NO="F",
            RESULTAT=RESU,
            NOM_CHAM="EPSI_ELNO",
            NOM_CMP="EPYY",
            VALE_CALC=6.99763746e-05,
            VALE_REFE=6.9999999999999994e-05,
            REFERENCE="ANALYTIQUE",
            CRITERE="RELATIF",
            PRECISION=1.0e-2,
            GROUP_MA="M223",
        ),
        _F(
            NUME_ORDRE=1,
            GROUP_NO="F",
            RESULTAT=RESU,
            NOM_CHAM="EPSI_ELNO",
            NOM_CMP="EPZZ",
            VALE_CALC=-6.00248988e-05,
            VALE_REFE=0.0,
            REFERENCE="ANALYTIQUE",
            CRITERE="ABSOLU",
            PRECISION=1.0e-2,
            GROUP_MA="M223",
        ),
        _F(
            NUME_ORDRE=1,
            GROUP_NO="F",
            RESULTAT=RESU,
            NOM_CHAM="EPSI_ELNO",
            NOM_CMP="EPXY",
            VALE_CALC=1.30076399e-04,
            VALE_REFE=1.2999999999999999e-4,
            REFERENCE="ANALYTIQUE",
            CRITERE="RELATIF",
            PRECISION=1.0e-2,
            GROUP_MA="M223",
        ),
    )
)

# -----------------------------------------------------------------

TEST_RESU(
    RESU=(
        _F(
            NUME_ORDRE=1,
            GROUP_NO="A",
            RESULTAT=RESU,
            NOM_CHAM="SIGM_ELNO",
            NOM_CMP="SIXX",
            VALE_CALC=99.609477776,
            VALE_REFE=100.0,
            REFERENCE="ANALYTIQUE",
            CRITERE="RELATIF",
            PRECISION=1.0e-2,
            GROUP_MA="M1",
        ),
        _F(
            NUME_ORDRE=1,
            GROUP_NO="A",
            RESULTAT=RESU,
            NOM_CHAM="SIGM_ELNO",
            NOM_CMP="SIYY",
            VALE_CALC=-59.462018715,
            VALE_REFE=-60.0,
            REFERENCE="ANALYTIQUE",
            CRITERE="RELATIF",
            PRECISION=1.0e-2,
            GROUP_MA="M1",
        ),
        _F(
            NUME_ORDRE=1,
            GROUP_NO="A",
            RESULTAT=RESU,
            NOM_CHAM="SIGM_ELNO",
            NOM_CMP="SIZZ",
            VALE_CALC=0.0,
            VALE_REFE=0.0,
            REFERENCE="ANALYTIQUE",
            PRECISION=1e-4,
            CRITERE="ABSOLU",
            GROUP_MA="M1",
        ),
        _F(
            NUME_ORDRE=1,
            GROUP_NO="A",
            RESULTAT=RESU,
            NOM_CHAM="SIGM_ELNO",
            NOM_CMP="SIXY",
            VALE_CALC=0.244061681,
            VALE_REFE=0.0,
            REFERENCE="ANALYTIQUE",
            CRITERE="ABSOLU",
            PRECISION=0.3,
            GROUP_MA="M1",
        ),
    )
)

# -----------------------------------------------------------------

TEST_RESU(
    RESU=(
        _F(
            NUME_ORDRE=1,
            GROUP_NO="B",
            RESULTAT=RESU,
            NOM_CHAM="SIGM_ELNO",
            NOM_CMP="SIXX",
            VALE_CALC=39.977414508,
            VALE_REFE=40.0,
            REFERENCE="ANALYTIQUE",
            CRITERE="RELATIF",
            PRECISION=5.0e-3,
            GROUP_MA="M151",
        ),
        _F(
            NUME_ORDRE=1,
            GROUP_NO="B",
            RESULTAT=RESU,
            NOM_CHAM="SIGM_ELNO",
            NOM_CMP="SIYY",
            VALE_CALC=0.078610377,
            VALE_REFE=0.0,
            REFERENCE="ANALYTIQUE",
            CRITERE="ABSOLU",
            PRECISION=0.1,
            GROUP_MA="M151",
        ),
        _F(
            NUME_ORDRE=1,
            GROUP_NO="B",
            RESULTAT=RESU,
            NOM_CHAM="SIGM_ELNO",
            NOM_CMP="SIZZ",
            VALE_CALC=0.00000000e00,
            VALE_REFE=0.0,
            REFERENCE="ANALYTIQUE",
            CRITERE="ABSOLU",
            PRECISION=0.015,
            GROUP_MA="M151",
        ),
        _F(
            NUME_ORDRE=1,
            GROUP_NO="B",
            RESULTAT=RESU,
            NOM_CHAM="SIGM_ELNO",
            NOM_CMP="SIXY",
            VALE_CALC=-0.018092073,
            VALE_REFE=0.0,
            REFERENCE="ANALYTIQUE",
            CRITERE="ABSOLU",
            PRECISION=0.1,
            GROUP_MA="M151",
        ),
    )
)

# -----------------------------------------------------------------

TEST_RESU(
    RESU=(
        _F(
            NUME_ORDRE=1,
            GROUP_NO="E",
            RESULTAT=RESU,
            NOM_CHAM="SIGM_ELNO",
            NOM_CMP="SIXX",
            VALE_CALC=20.060355816,
            VALE_REFE=20.0,
            REFERENCE="ANALYTIQUE",
            CRITERE="RELATIF",
            PRECISION=0.05,
            GROUP_MA="M75",
        ),
        _F(
            NUME_ORDRE=1,
            GROUP_NO="E",
            RESULTAT=RESU,
            NOM_CHAM="SIGM_ELNO",
            NOM_CMP="SIYY",
            VALE_CALC=20.064883598,
            VALE_REFE=20.0,
            REFERENCE="ANALYTIQUE",
            CRITERE="RELATIF",
            PRECISION=0.05,
            GROUP_MA="M75",
        ),
        _F(
            NUME_ORDRE=1,
            GROUP_NO="E",
            RESULTAT=RESU,
            NOM_CHAM="SIGM_ELNO",
            NOM_CMP="SIZZ",
            VALE_CALC=0.0,
            VALE_REFE=0.0,
            REFERENCE="ANALYTIQUE",
            PRECISION=1e-4,
            CRITERE="ABSOLU",
            GROUP_MA="M75",
        ),
        _F(
            NUME_ORDRE=1,
            GROUP_NO="E",
            RESULTAT=RESU,
            NOM_CHAM="SIGM_ELNO",
            NOM_CMP="SIXY",
            VALE_CALC=79.824080006,
            VALE_REFE=80.0,
            REFERENCE="ANALYTIQUE",
            CRITERE="RELATIF",
            PRECISION=1.0e-2,
            GROUP_MA="M75",
        ),
    )
)

# -----------------------------------------------------------------

TEST_RESU(
    RESU=(
        _F(
            NUME_ORDRE=1,
            GROUP_NO="F",
            RESULTAT=RESU,
            NOM_CHAM="SIGM_ELNO",
            NOM_CMP="SIXX",
            VALE_CALC=20.016403278083,
            VALE_REFE=20.0,
            REFERENCE="ANALYTIQUE",
            CRITERE="RELATIF",
            PRECISION=1.0e-2,
            GROUP_MA="M223",
        ),
        _F(
            NUME_ORDRE=1,
            GROUP_NO="F",
            RESULTAT=RESU,
            NOM_CHAM="SIGM_ELNO",
            NOM_CMP="SIYY",
            VALE_CALC=20.000195908373,
            VALE_REFE=20.0,
            REFERENCE="ANALYTIQUE",
            CRITERE="RELATIF",
            PRECISION=1.0e-2,
            GROUP_MA="M223",
        ),
        _F(
            NUME_ORDRE=1,
            GROUP_NO="F",
            RESULTAT=RESU,
            NOM_CHAM="SIGM_ELNO",
            NOM_CMP="SIZZ",
            VALE_CALC=0.0,
            VALE_REFE=0.0,
            REFERENCE="ANALYTIQUE",
            PRECISION=1e-4,
            CRITERE="ABSOLU",
            GROUP_MA="M223",
        ),
        _F(
            NUME_ORDRE=1,
            GROUP_NO="F",
            RESULTAT=RESU,
            NOM_CHAM="SIGM_ELNO",
            NOM_CMP="SIXY",
            VALE_CALC=20.01175368631,
            VALE_REFE=20,
            REFERENCE="ANALYTIQUE",
            PRECISION=1e-2,
            CRITERE="RELATIF",
            GROUP_MA="M223",
        ),
    )
)

FIN()
#
