# coding=utf-8
# --------------------------------------------------------------------
# Copyright (C) 1991 - 2025 - EDF R&D - www.code-aster.org
# This file is part of code_aster.
#
# code_aster is free software: you can redistribute it and/or modify
# it under the terms of the GNU General Public License as published by
# the Free Software Foundation, either version 3 of the License, or
# (at your option) any later version.
#
# code_aster is distributed in the hope that it will be useful,
# but WITHOUT ANY WARRANTY; without even the implied warranty of
# MERCHANTABILITY or FITNESS FOR A PARTICULAR PURPOSE.  See the
# GNU General Public License for more details.
#
# You should have received a copy of the GNU General Public License
# along with code_aster.  If not, see <http://www.gnu.org/licenses/>.
# --------------------------------------------------------------------

# LES NOEUDS NE PORTENT PAS  DE DDLS DE ROTATION
# TRAITEMENT DES CAS PARTICULIERS :
#       NOEUDS CONFONDUS (2D ET 3D)
#       NOEUDS ALIGNES (3D)
# ----------------------------------------------------------------------


DEBUT(CODE="OUI", DEBUG=_F(SDVERI="OUI"))

MATER = DEFI_MATERIAU(ELAS=_F(E=200000.0, NU=0.0))

MA_3D = LIRE_MAILLAGE(FORMAT="ASTER", UNITE=20)

MA_2D = LIRE_MAILLAGE(FORMAT="ASTER", UNITE=22)

CHMAT_3D = AFFE_MATERIAU(MAILLAGE=MA_3D, AFFE=_F(TOUT="OUI", MATER=MATER))

CHMAT_2D = AFFE_MATERIAU(MAILLAGE=MA_2D, AFFE=_F(TOUT="OUI", MATER=MATER))

#  MODELE  2D :
#  ------------


MOD1 = AFFE_MODELE(
    MAILLAGE=MA_2D,
    AFFE=_F(PHENOMENE="MECANIQUE", MODELISATION="D_PLAN", GROUP_MA=("ABCD", "BE1", "BE2", "BE3")),
)

CH1 = AFFE_CHAR_MECA(
    MODELE=MOD1,
    LIAISON_SOLIDE=(
        #         -- CAS GENERAL :
        _F(GROUP_NO=("A", "B", "C", "D")),
        #         -- CAS PARTICULIER : NOEUDS CONFONDUS
        _F(GROUP_NO=("E1", "E2", "E3")),
    ),
    DDL_IMPO=(_F(GROUP_NO=("A", "E1"), DX=2.0, DY=3.0), _F(GROUP_NO=("B",), DY=3.001)),
)

MES1 = MECA_STATIQUE(MODELE=MOD1, CHAM_MATER=CHMAT_2D, EXCIT=_F(CHARGE=CH1))

TEST_RESU(
    RESU=(
        _F(
            NUME_ORDRE=1,
            REFERENCE="ANALYTIQUE",
            RESULTAT=MES1,
            NOM_CHAM="DEPL",
            GROUP_NO="C",
            NOM_CMP="DX",
            VALE_CALC=1.999,
            VALE_REFE=1.999,
            PRECISION=1.0e-12,
        ),
        _F(
            NUME_ORDRE=1,
            REFERENCE="ANALYTIQUE",
            RESULTAT=MES1,
            NOM_CHAM="DEPL",
            GROUP_NO="C",
            NOM_CMP="DY",
            VALE_CALC=3.001,
            VALE_REFE=3.001,
            PRECISION=1.0e-12,
        ),
        _F(
            NUME_ORDRE=1,
            REFERENCE="ANALYTIQUE",
            RESULTAT=MES1,
            NOM_CHAM="DEPL",
            GROUP_NO="E2",
            NOM_CMP="DX",
            VALE_CALC=2.0,
            VALE_REFE=2.0,
            PRECISION=1.0e-12,
        ),
        _F(
            NUME_ORDRE=1,
            REFERENCE="ANALYTIQUE",
            RESULTAT=MES1,
            NOM_CHAM="DEPL",
            GROUP_NO="E2",
            NOM_CMP="DY",
            VALE_CALC=3.0,
            VALE_REFE=3.0,
            PRECISION=1.0e-12,
        ),
    )
)

# ---------------------------------------------------------------------

#  MODELE  3D :
#  ------------


MOD2 = AFFE_MODELE(
    MAILLAGE=MA_3D,
    AFFE=_F(
        PHENOMENE="MECANIQUE",
        MODELISATION="3D",
        GROUP_MA=("FGHIJKLM", "ON", "NP", "IQ1", "IQ2", "IQ3"),
    ),
)

CH2 = AFFE_CHAR_MECA(
    MODELE=MOD2,
    LIAISON_SOLIDE=(
        #         -- CAS GENERAL :
        _F(GROUP_MA=("FGHIJKLM",)),
        #         -- CAS PARTICULIER : NOEUDS ALIGNES
        _F(GROUP_MA=("GROUP_MA_ONP",), DIST_MIN=0.001),
        #         -- CAS PARTICULIER : NOEUDS CONFONDUS
        _F(GROUP_NO=("GROUP_NO_Q1Q2Q3",)),
    ),
    DDL_IMPO=(
        _F(GROUP_NO=("F", "N", "Q1"), DX=2.0, DY=3.0, DZ=4.0),
        _F(GROUP_NO=("J", "O"), DX=2.002),
        _F(GROUP_NO=("J", "O"), DY=2.999),
        _F(GROUP_NO=("I",), DX=1.997),
    ),
)

MES2 = MECA_STATIQUE(MODELE=MOD2, CHAM_MATER=CHMAT_3D, EXCIT=_F(CHARGE=CH2))

TEST_RESU(
    RESU=(
        _F(
            NUME_ORDRE=1,
            REFERENCE="ANALYTIQUE",
            RESULTAT=MES2,
            NOM_CHAM="DEPL",
            GROUP_NO="L",
            NOM_CMP="DX",
            VALE_CALC=1.999,
            VALE_REFE=1.999,
            PRECISION=1.0e-12,
        ),
        _F(
            NUME_ORDRE=1,
            REFERENCE="ANALYTIQUE",
            RESULTAT=MES2,
            NOM_CHAM="DEPL",
            GROUP_NO="L",
            NOM_CMP="DY",
            VALE_CALC=3.002,
            VALE_REFE=3.002,
            PRECISION=1.0e-12,
        ),
        _F(
            NUME_ORDRE=1,
            REFERENCE="ANALYTIQUE",
            RESULTAT=MES2,
            NOM_CHAM="DEPL",
            GROUP_NO="L",
            NOM_CMP="DZ",
            VALE_CALC=3.999,
            VALE_REFE=3.999,
            PRECISION=1.0e-12,
        ),
        _F(
            NUME_ORDRE=1,
            REFERENCE="ANALYTIQUE",
            RESULTAT=MES2,
            NOM_CHAM="DEPL",
            GROUP_NO="P",
            NOM_CMP="DX",
            VALE_CALC=1.998,
            VALE_REFE=1.998,
            PRECISION=1.0e-12,
        ),
        _F(
            NUME_ORDRE=1,
            REFERENCE="ANALYTIQUE",
            RESULTAT=MES2,
            NOM_CHAM="DEPL",
            GROUP_NO="P",
            NOM_CMP="DY",
            VALE_CALC=3.001,
            VALE_REFE=3.001,
            PRECISION=1.0e-12,
        ),
        _F(
            NUME_ORDRE=1,
            REFERENCE="ANALYTIQUE",
            RESULTAT=MES2,
            NOM_CHAM="DEPL",
            GROUP_NO="P",
            NOM_CMP="DZ",
            VALE_CALC=4.0,
            VALE_REFE=4.0,
            PRECISION=1.0e-12,
        ),
        _F(
            NUME_ORDRE=1,
            REFERENCE="ANALYTIQUE",
            RESULTAT=MES2,
            NOM_CHAM="DEPL",
            GROUP_NO="Q3",
            NOM_CMP="DX",
            VALE_CALC=2.0,
            VALE_REFE=2.0,
            PRECISION=1.0e-12,
        ),
        _F(
            NUME_ORDRE=1,
            REFERENCE="ANALYTIQUE",
            RESULTAT=MES2,
            NOM_CHAM="DEPL",
            GROUP_NO="Q3",
            NOM_CMP="DY",
            VALE_CALC=3.0,
            VALE_REFE=3.0,
            PRECISION=1.0e-12,
        ),
        _F(
            NUME_ORDRE=1,
            REFERENCE="ANALYTIQUE",
            RESULTAT=MES2,
            NOM_CHAM="DEPL",
            GROUP_NO="Q3",
            NOM_CMP="DZ",
            VALE_CALC=4.0,
            VALE_REFE=4.0,
            PRECISION=1.0e-12,
        ),
    )
)

#
# ---------------------------------------------------------------------

FIN()
#
