# coding=utf-8
# --------------------------------------------------------------------
# Copyright (C) 1991 - 2025 - EDF R&D - www.code-aster.org
# This file is part of code_aster.
#
# code_aster is free software: you can redistribute it and/or modify
# it under the terms of the GNU General Public License as published by
# the Free Software Foundation, either version 3 of the License, or
# (at your option) any later version.
#
# code_aster is distributed in the hope that it will be useful,
# but WITHOUT ANY WARRANTY; without even the implied warranty of
# MERCHANTABILITY or FITNESS FOR A PARTICULAR PURPOSE.  See the
# GNU General Public License for more details.
#
# You should have received a copy of the GNU General Public License
# along with code_aster.  If not, see <http://www.gnu.org/licenses/>.
# --------------------------------------------------------------------

# CERTAINS NOEUDS PORTENT DES DDLS DE ROTATIONS :
#      DRZ            POUR LE MODELE 2D
#      DRX,DRY,DRZ    POUR LE MODELE 3D
# TRAITEMENT DES CAS PARTICULIERS :
#       NOEUDS CONFONDUS (2D ET 3D)
#       NOEUDS ALIGNES (3D)
# ----------------------------------------------------------------------


DEBUT(CODE="OUI", DEBUG=_F(SDVERI="OUI"))

MATER = DEFI_MATERIAU(ELAS=_F(E=0.0, NU=0.0))

MA_3D = LIRE_MAILLAGE(FORMAT="ASTER", UNITE=20)

MA_2D = LIRE_MAILLAGE(FORMAT="ASTER", UNITE=22)

CHMAT_3D = AFFE_MATERIAU(MAILLAGE=MA_3D, AFFE=_F(TOUT="OUI", MATER=MATER))

CHMAT_2D = AFFE_MATERIAU(MAILLAGE=MA_2D, AFFE=_F(TOUT="OUI", MATER=MATER))

#  MODELE  2D :
#  ------------


MOD1 = AFFE_MODELE(
    MAILLAGE=MA_2D,
    AFFE=(
        _F(PHENOMENE="MECANIQUE", MODELISATION="D_PLAN", GROUP_MA=("ABCD", "BE1", "BE2", "BE3")),
        _F(PHENOMENE="MECANIQUE", MODELISATION="COQUE_AXIS", GROUP_MA=("ABE1",)),
    ),
)

CELEM1 = AFFE_CARA_ELEM(MODELE=MOD1, COQUE=_F(GROUP_MA=("ABE1",), EPAIS=1.0, A_CIS=1.0))

CH1 = AFFE_CHAR_MECA(
    MODELE=MOD1,
    LIAISON_SOLIDE=(
        #         -- CAS GENERAL :
        _F(GROUP_NO=("A", "B", "C", "D")),
        #         -- CAS PARTICULIER : NOEUDS CONFONDUS
        _F(GROUP_NO=("E1", "E2", "E3")),
    ),
    DDL_IMPO=(
        _F(GROUP_NO=("A", "E1"), DX=2.0, DY=3.0),
        _F(GROUP_NO=("B",), DY=3.001),
        _F(GROUP_NO=("E1",), DRZ=0.001),
    ),
)

MES1 = MECA_STATIQUE(MODELE=MOD1, CHAM_MATER=CHMAT_2D, EXCIT=_F(CHARGE=CH1), CARA_ELEM=CELEM1)

TEST_RESU(
    RESU=(
        _F(
            NUME_ORDRE=1,
            REFERENCE="ANALYTIQUE",
            RESULTAT=MES1,
            NOM_CHAM="DEPL",
            GROUP_NO="C",
            NOM_CMP="DX",
            VALE_REFE=1.999,
            VALE_CALC=1.999,
        ),
        _F(
            NUME_ORDRE=1,
            REFERENCE="ANALYTIQUE",
            RESULTAT=MES1,
            NOM_CHAM="DEPL",
            GROUP_NO="C",
            NOM_CMP="DY",
            VALE_REFE=3.001,
            VALE_CALC=3.001,
        ),
        _F(
            NUME_ORDRE=1,
            REFERENCE="ANALYTIQUE",
            RESULTAT=MES1,
            NOM_CHAM="DEPL",
            GROUP_NO="E2",
            NOM_CMP="DX",
            VALE_REFE=2.0,
            VALE_CALC=2.0,
        ),
        _F(
            NUME_ORDRE=1,
            REFERENCE="ANALYTIQUE",
            RESULTAT=MES1,
            NOM_CHAM="DEPL",
            GROUP_NO="E2",
            NOM_CMP="DY",
            VALE_REFE=3.0,
            VALE_CALC=3.0,
        ),
    )
)

# ---------------------------------------------------------------------

#  MODELE  3D :
#  ------------


MOD2 = AFFE_MODELE(
    MAILLAGE=MA_3D,
    AFFE=(
        _F(
            PHENOMENE="MECANIQUE",
            MODELISATION="3D",
            GROUP_MA=("FGHIJKLM", "ON", "NP", "IQ1", "IQ2", "IQ3"),
        ),
        _F(PHENOMENE="MECANIQUE", MODELISATION="POU_D_E", GROUP_MA=("IN", "NQ1")),
    ),
)

VAL = DEFI_CONSTANTE(VALE=1.997)

CH2 = AFFE_CHAR_MECA(
    MODELE=MOD2,
    DDL_IMPO=_F(GROUP_NO=("I",), DX=1.997),
    LIAISON_SOLIDE=(
        #         -- CAS GENERAL :
        _F(GROUP_MA=("FGHIJKLM",)),
        #         -- CAS PARTICULIER : NOEUDS ALIGNES
        _F(GROUP_MA=("GROUP_MA_ONP",)),
        #         -- CAS PARTICULIER : NOEUDS CONFONDUS
        _F(GROUP_NO=("GROUP_NO_Q1Q2Q3",)),
    ),
)

CH2B = AFFE_CHAR_MECA(
    MODELE=MOD2,
    DDL_IMPO=(
        _F(GROUP_NO=("F", "N", "Q1"), DX=2.0, DY=3.0, DZ=4.0),
        _F(GROUP_NO=("J", "O"), DX=2.002),
        _F(GROUP_NO=("J", "O"), DY=2.999),
        _F(GROUP_NO=("N",), DRZ=0.003),
        _F(GROUP_NO=("Q1",), DRX=0.001),
        _F(GROUP_NO=("Q1",), DRY=0.002),
        _F(GROUP_NO=("Q1",), DRZ=0.003),
    ),
)

CELEM2 = AFFE_CARA_ELEM(
    MODELE=MOD2, POUTRE=_F(GROUP_MA=("IN", "NQ1"), SECTION="CERCLE", CARA=("R",), VALE=(2.0,))
)

MES2 = MECA_STATIQUE(
    MODELE=MOD2, CHAM_MATER=CHMAT_3D, EXCIT=(_F(CHARGE=CH2), _F(CHARGE=CH2B)), CARA_ELEM=CELEM2
)

TEST_RESU(
    RESU=(
        _F(
            NUME_ORDRE=1,
            REFERENCE="ANALYTIQUE",
            RESULTAT=MES2,
            NOM_CHAM="DEPL",
            GROUP_NO="L",
            NOM_CMP="DX",
            VALE_REFE=1.999,
            VALE_CALC=1.999,
        ),
        _F(
            NUME_ORDRE=1,
            REFERENCE="ANALYTIQUE",
            RESULTAT=MES2,
            NOM_CHAM="DEPL",
            GROUP_NO="L",
            NOM_CMP="DY",
            VALE_REFE=3.002,
            VALE_CALC=3.002,
        ),
        _F(
            NUME_ORDRE=1,
            REFERENCE="ANALYTIQUE",
            RESULTAT=MES2,
            NOM_CHAM="DEPL",
            GROUP_NO="L",
            NOM_CMP="DZ",
            VALE_REFE=3.999,
            VALE_CALC=3.999,
        ),
        _F(
            NUME_ORDRE=1,
            REFERENCE="ANALYTIQUE",
            RESULTAT=MES2,
            NOM_CHAM="DEPL",
            GROUP_NO="P",
            NOM_CMP="DX",
            VALE_REFE=1.998,
            VALE_CALC=1.998,
        ),
        _F(
            NUME_ORDRE=1,
            REFERENCE="ANALYTIQUE",
            RESULTAT=MES2,
            NOM_CHAM="DEPL",
            GROUP_NO="P",
            NOM_CMP="DY",
            VALE_REFE=3.001,
            VALE_CALC=3.001,
        ),
        _F(
            NUME_ORDRE=1,
            REFERENCE="ANALYTIQUE",
            RESULTAT=MES2,
            NOM_CHAM="DEPL",
            GROUP_NO="P",
            NOM_CMP="DZ",
            VALE_REFE=4.0,
            VALE_CALC=4.0,
        ),
        _F(
            NUME_ORDRE=1,
            REFERENCE="ANALYTIQUE",
            RESULTAT=MES2,
            NOM_CHAM="DEPL",
            GROUP_NO="Q3",
            NOM_CMP="DX",
            VALE_REFE=2.0,
            VALE_CALC=2.0,
        ),
        _F(
            NUME_ORDRE=1,
            REFERENCE="ANALYTIQUE",
            RESULTAT=MES2,
            NOM_CHAM="DEPL",
            GROUP_NO="Q3",
            NOM_CMP="DY",
            VALE_REFE=3.0,
            VALE_CALC=3.0,
        ),
        _F(
            NUME_ORDRE=1,
            REFERENCE="ANALYTIQUE",
            RESULTAT=MES2,
            NOM_CHAM="DEPL",
            GROUP_NO="Q3",
            NOM_CMP="DZ",
            VALE_REFE=4.0,
            VALE_CALC=4.0,
        ),
    )
)

#
# ---------------------------------------------------------------------

FIN()
#
