# coding=utf-8
# --------------------------------------------------------------------
# Copyright (C) 1991 - 2025 - EDF R&D - www.code-aster.org
# This file is part of code_aster.
#
# code_aster is free software: you can redistribute it and/or modify
# it under the terms of the GNU General Public License as published by
# the Free Software Foundation, either version 3 of the License, or
# (at your option) any later version.
#
# code_aster is distributed in the hope that it will be useful,
# but WITHOUT ANY WARRANTY; without even the implied warranty of
# MERCHANTABILITY or FITNESS FOR A PARTICULAR PURPOSE.  See the
# GNU General Public License for more details.
#
# You should have received a copy of the GNU General Public License
# along with code_aster.  If not, see <http://www.gnu.org/licenses/>.
# --------------------------------------------------------------------

DEBUT(CODE="OUI", ERREUR=_F(ALARME="EXCEPTION"), DEBUG=_F(SDVERI="OUI"))

MA = LIRE_MAILLAGE(VERI_MAIL=_F(VERIF="OUI"), FORMAT="MED")

MA = DEFI_GROUP(
    reuse=MA,
    MAILLAGE=MA,
    CREA_GROUP_NO=_F(GROUP_MA=("LP8P9", "LP8P9S", "LP0P11", "LP0P8", "LP0P8S")),
)

MAT = DEFI_MATERIAU(ELAS=_F(E=2.0e11, NU=0.3, ALPHA=0.0, RHO=7850))

CHMAT = AFFE_MATERIAU(MAILLAGE=MA, AFFE=_F(TOUT="OUI", MATER=MAT))

LINST = DEFI_LIST_REEL(DEBUT=0.0, INTERVALLE=_F(JUSQU_A=1.0, NOMBRE=1))

FISS = DEFI_FOND_FISS(
    MAILLAGE=MA,
    SYME="NON",
    FOND_FISS=_F(GROUP_NO=("P0",)),
    LEVRE_SUP=_F(GROUP_MA="LP0P8"),
    LEVRE_INF=_F(GROUP_MA="LP0P8S"),
)

RSUP = 0.25
RINF = 0.05

# ---------------
# VALEUR DE REFERENCE MILIEU INFINI : G=145.6
GLOC = 11.58648
K1 = 1.595769e6

# POUR UN RADIAN
GREF = 23.17296


MO = AFFE_MODELE(
    MAILLAGE=MA, AFFE=_F(TOUT="OUI", PHENOMENE="MECANIQUE", MODELISATION="AXIS_INCO_UPG")
)


SYME = AFFE_CHAR_MECA(
    MODELE=MO, DDL_IMPO=(_F(GROUP_NO=("LP8P9", "LP8P9S"), DX=0.0), _F(GROUP_NO="LP0P11", DY=0.0))
)

PRESS = AFFE_CHAR_MECA(
    MODELE=MO, FORCE_CONTOUR=(_F(GROUP_MA="LP9P10", FY=1.0e6), _F(GROUP_MA="LP9P10S", FY=-1.0e6))
)

CHAMD = STAT_NON_LINE(
    MODELE=MO,
    CHAM_MATER=CHMAT,
    EXCIT=(_F(CHARGE=PRESS), _F(CHARGE=SYME)),
    COMPORTEMENT=_F(RELATION="ELAS", DEFORMATION="PETIT", TOUT="OUI"),
    INCREMENT=_F(LIST_INST=LINST),
    CONVERGENCE=_F(RESI_GLOB_MAXI=1e-07, ITER_GLOB_MAXI=15),
    NEWTON=_F(REAC_INCR=1),
)

CHAMD = CALC_CHAMP(reuse=CHAMD, CONTRAINTE=("SIGM_ELNO"), RESULTAT=CHAMD)

GK0 = CALC_G(THETA=_F(FISSURE=FISS, R_INF=RINF, R_SUP=RSUP), RESULTAT=CHAMD, INST=1, OPTION="K")

IMPR_TABLE(TABLE=GK0),


TEST_TABLE(
    TABLE=GK0,
    NOM_PARA="K1",
    REFERENCE="ANALYTIQUE",
    VALE_CALC=1647041.1466479977,
    VALE_REFE=K1,
    PRECISION=0.035,
)

TEST_TABLE(
    TABLE=GK0,
    NOM_PARA="G_IRWIN",
    REFERENCE="ANALYTIQUE",
    VALE_CALC=12.342987651319818,
    VALE_REFE=GLOC,
    PRECISION=0.07,
)

FIN()
#
