# coding=utf-8
# --------------------------------------------------------------------
# Copyright (C) 1991 - 2025 - EDF R&D - www.code-aster.org
# This file is part of code_aster.
#
# code_aster is free software: you can redistribute it and/or modify
# it under the terms of the GNU General Public License as published by
# the Free Software Foundation, either version 3 of the License, or
# (at your option) any later version.
#
# code_aster is distributed in the hope that it will be useful,
# but WITHOUT ANY WARRANTY; without even the implied warranty of
# MERCHANTABILITY or FITNESS FOR A PARTICULAR PURPOSE.  See the
# GNU General Public License for more details.
#
# You should have received a copy of the GNU General Public License
# along with code_aster.  If not, see <http://www.gnu.org/licenses/>.
# --------------------------------------------------------------------

DEBUT(CODE="OUI", DEBUG=_F(SDVERI="OUI"))

MA = LIRE_MAILLAGE(FORMAT="MED")

MO = AFFE_MODELE(MAILLAGE=MA, AFFE=_F(TOUT="OUI", PHENOMENE="MECANIQUE", MODELISATION="3D"))

F1 = DEFI_CONSTANTE(VALE=5.0e11)

F2 = DEFI_CONSTANTE(VALE=2.0e11)

F3 = DEFI_CONSTANTE(VALE=0.1)

F4 = DEFI_CONSTANTE(VALE=0.3)

F5 = DEFI_CONSTANTE(VALE=76923.1e6)

RHOF = DEFI_CONSTANTE(VALE=7800.0)
MAT = DEFI_MATERIAU(ELAS_ISTR_FO=_F(E_L=F1, E_N=F2, NU_LT=F3, NU_LN=F4, G_LN=F5, RHO=RHOF))

CHMAT = AFFE_MATERIAU(MAILLAGE=MA, AFFE=_F(TOUT="OUI", MATER=MAT))

# ------------------------------------------------------------------
#    --- STRUCTURE SUSPENDUE //Z EN A + PAS DE ROTATION

CH = AFFE_CHAR_MECA(
    MODELE=MO,
    PESANTEUR=_F(GRAVITE=9.81, DIRECTION=(0.0, 0.0, -1.0)),
    #      PRES_REP:( GROUP_MA: FACESUP       PRES: -229553.   )
    FORCE_FACE=_F(GROUP_MA="FACESUP", FZ=229553.0),
    DDL_IMPO=(
        _F(GROUP_NO="A", DX=0.0, DY=0.0, DZ=0.0),
        _F(GROUP_NO="D", DY=0.0),
        _F(GROUP_NO="ABSANSA", DX=0.0, DY=0.0),
    ),
)

# ------------------------------------------------------------------

RESU = MECA_STATIQUE(MODELE=MO, CHAM_MATER=CHMAT, EXCIT=_F(CHARGE=CH))

RESU = CALC_CHAMP(reuse=RESU, RESULTAT=RESU, CONTRAINTE=("SIGM_ELGA"))

RESU = CALC_CHAMP(reuse=RESU, RESULTAT=RESU, CONTRAINTE=("SIGM_ELNO"))


# ---------------------------------------------------------------------

TEST_RESU(
    RESU=(
        _F(
            NUME_ORDRE=1,
            RESULTAT=RESU,
            NOM_CHAM="DEPL",
            GROUP_NO="N53",
            NOM_CMP="DX",
            REFERENCE="ANALYTIQUE",
            VALE_REFE=0.0,
            VALE_CALC=0.0,
            CRITERE="ABSOLU",
        ),
        _F(
            NUME_ORDRE=1,
            RESULTAT=RESU,
            NOM_CHAM="DEPL",
            GROUP_NO="N53",
            NOM_CMP="DY",
            REFERENCE="ANALYTIQUE",
            VALE_REFE=0.0,
            VALE_CALC=0.0,
            CRITERE="ABSOLU",
        ),
        _F(
            NUME_ORDRE=1,
            RESULTAT=RESU,
            NOM_CHAM="DEPL",
            GROUP_NO="N53",
            NOM_CMP="DZ",
            REFERENCE="ANALYTIQUE",
            VALE_REFE=-1.721655e-06,
            VALE_CALC=-1.7216742001253e-06,
            PRECISION=1.0e-3,
            CRITERE="RELATIF",
        ),
        _F(
            NUME_ORDRE=1,
            RESULTAT=RESU,
            NOM_CHAM="DEPL",
            GROUP_NO="N12",
            NOM_CMP="DX",
            REFERENCE="ANALYTIQUE",
            VALE_REFE=0.0,
            VALE_CALC=0.0,
            CRITERE="ABSOLU",
        ),
        _F(
            NUME_ORDRE=1,
            RESULTAT=RESU,
            NOM_CHAM="DEPL",
            GROUP_NO="N12",
            NOM_CMP="DY",
            REFERENCE="ANALYTIQUE",
            VALE_REFE=0.0,
            VALE_CALC=0.0,
            CRITERE="ABSOLU",
        ),
        _F(
            NUME_ORDRE=1,
            RESULTAT=RESU,
            NOM_CHAM="DEPL",
            GROUP_NO="N12",
            NOM_CMP="DZ",
            REFERENCE="ANALYTIQUE",
            VALE_REFE=-1.715916e-06,
            VALE_CALC=-1.715935226662e-06,
            PRECISION=1.0e-3,
            CRITERE="RELATIF",
        ),
        _F(
            NUME_ORDRE=1,
            RESULTAT=RESU,
            NOM_CHAM="DEPL",
            GROUP_NO="N18",
            NOM_CMP="DX",
            REFERENCE="ANALYTIQUE",
            VALE_REFE=-6.88662e-08,
            VALE_CALC=-6.8865346527456e-08,
            PRECISION=1.0e-3,
            CRITERE="RELATIF",
        ),
        _F(
            NUME_ORDRE=1,
            RESULTAT=RESU,
            NOM_CHAM="DEPL",
            GROUP_NO="N18",
            NOM_CMP="DY",
            REFERENCE="ANALYTIQUE",
            VALE_REFE=0.0,
            VALE_CALC=0.0,
            CRITERE="ABSOLU",
        ),
        _F(
            NUME_ORDRE=1,
            RESULTAT=RESU,
            NOM_CHAM="DEPL",
            GROUP_NO="N18",
            NOM_CMP="DZ",
            REFERENCE="ANALYTIQUE",
            VALE_CALC=5.71514229e-09,
            VALE_REFE=5.73885e-09,
            CRITERE="RELATIF",
            PRECISION=5.0e-3,
        ),
        _F(
            NUME_ORDRE=1,
            RESULTAT=RESU,
            NOM_CHAM="DEPL",
            GROUP_NO="N56",
            NOM_CMP="DX",
            REFERENCE="ANALYTIQUE",
            VALE_REFE=0.0,
            VALE_CALC=0.0,
            CRITERE="ABSOLU",
        ),
        _F(
            NUME_ORDRE=1,
            RESULTAT=RESU,
            NOM_CHAM="DEPL",
            GROUP_NO="N56",
            NOM_CMP="DY",
            REFERENCE="ANALYTIQUE",
            VALE_REFE=0.0,
            VALE_CALC=0.0,
            CRITERE="ABSOLU",
        ),
        _F(
            NUME_ORDRE=1,
            RESULTAT=RESU,
            NOM_CHAM="DEPL",
            GROUP_NO="N56",
            NOM_CMP="DZ",
            REFERENCE="ANALYTIQUE",
            VALE_REFE=-1.291241e-06,
            VALE_CALC=-1.2912607445295e-06,
            PRECISION=1.0e-3,
            CRITERE="RELATIF",
        ),
        _F(
            NUME_ORDRE=1,
            RESULTAT=RESU,
            NOM_CHAM="DEPL",
            GROUP_NO="N70",
            NOM_CMP="DX",
            REFERENCE="ANALYTIQUE",
            VALE_REFE=0.0,
            VALE_CALC=0.0,
            CRITERE="ABSOLU",
        ),
        _F(
            NUME_ORDRE=1,
            RESULTAT=RESU,
            NOM_CHAM="DEPL",
            GROUP_NO="N70",
            NOM_CMP="DY",
            REFERENCE="ANALYTIQUE",
            VALE_REFE=-6.88662e-08,
            VALE_CALC=-6.88662e-08,
            CRITERE="ABSOLU",
        ),
        _F(
            NUME_ORDRE=1,
            RESULTAT=RESU,
            NOM_CHAM="DEPL",
            GROUP_NO="N70",
            NOM_CMP="DZ",
            REFERENCE="ANALYTIQUE",
            VALE_CALC=5.71514229e-09,
            VALE_REFE=5.7388500000000003e-09,
            CRITERE="RELATIF",
            PRECISION=5.0e-3,
        ),
        _F(
            NUME_ORDRE=1,
            RESULTAT=RESU,
            NOM_CHAM="SIGM_ELNO",
            GROUP_NO="N59",
            NOM_CMP="SIZZ",
            REFERENCE="ANALYTIQUE",
            VALE_REFE=2.29554e5,
            VALE_CALC=2.2956183901444e5,
            PRECISION=1.0e-3,
            CRITERE="RELATIF",
            GROUP_MA="HEX3",
        ),
        _F(
            NUME_ORDRE=1,
            RESULTAT=RESU,
            NOM_CHAM="SIGM_ELNO",
            GROUP_NO="N56",
            NOM_CMP="SIZZ",
            REFERENCE="ANALYTIQUE",
            VALE_REFE=1.14777e5,
            VALE_CALC=1.14777e5,
            PRECISION=1.0e-3,
            CRITERE="RELATIF",
            GROUP_MA="HEX2",
        ),
        _F(
            NUME_ORDRE=1,
            RESULTAT=RESU,
            NOM_CHAM="SIGM_ELNO",
            GROUP_NO="N70",
            NOM_CMP="SIZZ",
            REFERENCE="ANALYTIQUE",
            VALE_REFE=2.29554e5,
            VALE_CALC=2.2955008291617e5,
            PRECISION=1.0e-3,
            CRITERE="RELATIF",
            GROUP_MA="HEX6",
        ),
    )
)

FIN()
#
