# coding=utf-8
# --------------------------------------------------------------------
# Copyright (C) 1991 - 2025 - EDF R&D - www.code-aster.org
# This file is part of code_aster.
#
# code_aster is free software: you can redistribute it and/or modify
# it under the terms of the GNU General Public License as published by
# the Free Software Foundation, either version 3 of the License, or
# (at your option) any later version.
#
# code_aster is distributed in the hope that it will be useful,
# but WITHOUT ANY WARRANTY; without even the implied warranty of
# MERCHANTABILITY or FITNESS FOR A PARTICULAR PURPOSE.  See the
# GNU General Public License for more details.
#
# You should have received a copy of the GNU General Public License
# along with code_aster.  If not, see <http://www.gnu.org/licenses/>.
# --------------------------------------------------------------------

DEBUT(CODE="OUI", ERREUR=_F(ALARME="ALARME"), DEBUG=_F(SDVERI="OUI"))

# MODELISATION A : Modélisation 3D FEM

# parametre utile
# ------------------

# rayon de la fissure
a = 2

# -----------------------------------------------------------------------------------------------------------------------------
#                                TRAVAIL SUR LE MAILLAGE, MODELE
# -----------------------------------------------------------------------------------------------------------------------------

MA = LIRE_MAILLAGE(FORMAT="MED")

MA = DEFI_GROUP(
    reuse=MA,
    MAILLAGE=MA,
    CREA_GROUP_NO=_F(
        OPTION="NOEUD_ORDO", NOM="NFF3", GROUP_MA="LFF1", GROUP_NO_ORIG="NFF1", GROUP_NO_EXTR="NFF2"
    ),
)

MA = DEFI_GROUP(
    reuse=MA,
    MAILLAGE=MA,
    CREA_GROUP_MA=_F(NOM="EXTERIEUR", UNION=("FACE_INF", "FACE_LAD", "FACE_LAG", "FACE_SUP")),
)
MA = DEFI_GROUP(reuse=MA, MAILLAGE=MA, CREA_GROUP_NO=_F(NOM="EXTE1", GROUP_MA=("EXTERIEUR",)))
MA = DEFI_GROUP(reuse=MA, MAILLAGE=MA, CREA_GROUP_NO=_F(NOM="FACE_AV", GROUP_MA=("FACE_AV",)))
MA = DEFI_GROUP(
    reuse=MA, MAILLAGE=MA, CREA_GROUP_NO=_F(NOM="EXTERIEUR", UNION=("EXTE1", "FACE_AR"))
)
MA = DEFI_GROUP(
    reuse=MA,
    MAILLAGE=MA,
    CREA_GROUP_NO=(
        _F(NOM="LEVINF1", DIFFE=("LEVINF", "LEVSUP")),
        _F(NOM="LEVSUP1", DIFFE=("LEVSUP", "LEVINF")),
        _F(NOM="FACE_AV1", DIFFE=("FACE_AV", "LEVSUP", "LEVINF", "EXTE1")),
    ),
)
# Barsoum
MA = MODI_MAILLAGE(
    reuse=MA, MAILLAGE=MA, MODI_MAILLE=_F(OPTION="NOEUD_QUART", GROUP_NO_FOND="NFF3")
)

MA = MODI_MAILLAGE(
    reuse=MA,
    MAILLAGE=MA,
    ORIE_PEAU=_F(GROUP_MA_PEAU=("FACE_AV", "FACE_SUP", "FACE_INF", "FACE_LAD", "FACE_LAG")),
)

MO = AFFE_MODELE(MAILLAGE=MA, AFFE=_F(TOUT="OUI", PHENOMENE="MECANIQUE", MODELISATION="3D"))

# -----------------------------------------------------------------------------------------------------------------------------
#                                CREATION DES CHAMPS THERMIQUES
# -----------------------------------------------------------------------------------------------------------------------------

# Temperature variable spatialement pour ouvrir la fissure
TEMPVARX = DEFI_FONCTION(NOM_PARA="Z", VALE=(-10, 250, -1, 130, 2, 80, 10, 250))

CHP_TEMP = CREA_CHAMP(
    OPERATION="AFFE",
    TYPE_CHAM="NOEU_TEMP_F",
    MAILLAGE=MA,
    AFFE=_F(TOUT="OUI", NOM_CMP="TEMP", VALE_F=TEMPVARX),
)

# Temperature constante initiale avant refroidissement
CTE250 = DEFI_FONCTION(NOM_PARA="Z", VALE=(-10, 250, 10, 250))

CHTEMP0 = CREA_CHAMP(
    OPERATION="AFFE",
    TYPE_CHAM="NOEU_TEMP_F",
    MAILLAGE=MA,
    AFFE=_F(TOUT="OUI", NOM_CMP="TEMP", VALE_F=CTE250),
)

# Calcul thermique
LIST1 = DEFI_LIST_REEL(DEBUT=0, INTERVALLE=_F(JUSQU_A=2, NOMBRE=2))

RESUTHER = CREA_RESU(
    OPERATION="AFFE",
    TYPE_RESU="EVOL_THER",
    AFFE=(
        _F(NOM_CHAM="TEMP", INST=-1, CHAM_GD=CHTEMP0),
        _F(NOM_CHAM="TEMP", LIST_INST=LIST1, CHAM_GD=CHP_TEMP),
    ),
)
# -----------------------------------------------------------------------------------------------------------------------------
#                                CHAMP MATERIAU
# -----------------------------------------------------------------------------------------------------------------------------


# Materiau, avec temperature comme variable de commande
E = 2.0e11
nu = 0.3
alpha = 1e-5
MAT = DEFI_MATERIAU(ELAS=_F(E=E, NU=nu, ALPHA=alpha))

CHMAT = AFFE_MATERIAU(
    MAILLAGE=MA,
    AFFE=_F(TOUT="OUI", MATER=MAT),
    AFFE_VARC=_F(TOUT="OUI", NOM_VARC="TEMP", EVOL=RESUTHER, VALE_REF=250),
)

# -----------------------------------------------------------------------------------------------------------------------------
#                                CHARGEMENTS POSSIBLES
# -----------------------------------------------------------------------------------------------------------------------------

# Fissure fermee
BLOCFISS = AFFE_CHAR_MECA(
    MODELE=MO,
    LIAISON_GROUP=(
        _F(
            GROUP_NO_1="LEVINF1",
            GROUP_NO_2="LEVSUP1",
            DDL_1="DX",
            COEF_MULT_1=1,
            DDL_2="DX",
            COEF_MULT_2=-1,
            COEF_IMPO=0,
        ),
        _F(
            GROUP_NO_1="LEVINF1",
            GROUP_NO_2="LEVSUP1",
            DDL_1="DY",
            COEF_MULT_1=1,
            DDL_2="DY",
            COEF_MULT_2=-1,
            COEF_IMPO=0,
        ),
        _F(
            GROUP_NO_1="LEVINF1",
            GROUP_NO_2="LEVSUP1",
            DDL_1="DZ",
            COEF_MULT_1=1,
            DDL_2="DZ",
            COEF_MULT_2=-1,
            COEF_IMPO=0,
        ),
    ),
)

# Symetrie
SYME = AFFE_CHAR_MECA(MODELE=MO, DDL_IMPO=_F(GROUP_NO="FACE_AV1", DY=0.0))

# ENCASTREMENT
ENCAS = AFFE_CHAR_MECA(MODELE=MO, DDL_IMPO=_F(GROUP_NO="EXTERIEUR", DX=0, DY=0, DZ=0))
# -----------------------------------------------------------------------------------------------------------------------------
#                               RESOLUTION DU PROBLEME THERMO-MECANIQUE A FISSURE FERMEE
#                                RESUMECA, POUR CREATION CONTRAINTE INITIALE
# -----------------------------------------------------------------------------------------------------------------------------

INSTMECA = DEFI_LIST_REEL(DEBUT=-1, INTERVALLE=(_F(JUSQU_A=0, PAS=1), _F(JUSQU_A=1, PAS=1)))

RESUMECA = STAT_NON_LINE(
    MODELE=MO,
    CHAM_MATER=CHMAT,
    EXCIT=(_F(CHARGE=ENCAS), _F(CHARGE=BLOCFISS), _F(CHARGE=SYME)),
    NEWTON=_F(REAC_ITER=0),
    COMPORTEMENT=_F(RELATION="ELAS"),
    INCREMENT=_F(LIST_INST=INSTMECA),
)

RESUMECA = CALC_CHAMP(
    reuse=RESUMECA,
    RESULTAT=RESUMECA,
    CONTRAINTE=("SIEF_ELNO", "SIEF_NOEU"),
    DEFORMATION=("EPSI_ELGA", "EPSP_ELNO"),
)

##Extraction des contraintes au noeuds et points de Gauss
SIEFELGA = CREA_CHAMP(
    TYPE_CHAM="ELGA_SIEF_R", OPERATION="EXTR", RESULTAT=RESUMECA, NOM_CHAM="SIEF_ELGA", INST=1
)

SIEFELNO = CREA_CHAMP(
    TYPE_CHAM="ELNO_SIEF_R", OPERATION="EXTR", RESULTAT=RESUMECA, NOM_CHAM="SIEF_ELNO", INST=1
)

SIEFNOEU = CREA_CHAMP(
    TYPE_CHAM="NOEU_SIEF_R", OPERATION="EXTR", RESULTAT=RESUMECA, NOM_CHAM="SIEF_NOEU", INST=1
)


# -----------------------------------------------------------------------------------------------------------------------------
#                               RESOLUTION DU PROBLEME THERMO-MECANIQUE A FISSURE OUVERTE
#                                RESOUVFI, POUR VALEUR DE REFERENCE
# -----------------------------------------------------------------------------------------------------------------------------
RESOUVFI = STAT_NON_LINE(
    MODELE=MO,
    CHAM_MATER=CHMAT,
    EXCIT=(_F(CHARGE=ENCAS), _F(CHARGE=SYME)),
    NEWTON=_F(REAC_ITER=0),
    COMPORTEMENT=_F(RELATION="ELAS"),
    INCREMENT=_F(LIST_INST=INSTMECA),
)

RESOUVFI = CALC_CHAMP(
    reuse=RESOUVFI,
    RESULTAT=RESOUVFI,
    CONTRAINTE=("SIEF_ELNO",),
    DEFORMATION=("EPSI_ELGA", "EPSP_ELNO"),
)


# -----------------------------------------------------------------------------------------------------------------------------
#                               RESOLUTION DU PROBLEME THERMO-MECANIQUE A FISSURE FERMEE
#                                RESVERI, POUR VERIFIER QUE LA CONTRAINTE EST AUTO-EQUILIBREE
# -----------------------------------------------------------------------------------------------------------------------------

## Definition de la liste d'instants
LIST3 = DEFI_LIST_REEL(DEBUT=2, INTERVALLE=_F(JUSQU_A=3, PAS=1))

## Affectation du materiau mecanique (sans chargement thermique)
MATMECA = AFFE_MATERIAU(MAILLAGE=MA, AFFE=_F(TOUT="OUI", MATER=MAT))

## Resolution ouverture de la fissure en presence d'un champ de contrainte residuelle
RESVERI = STAT_NON_LINE(
    MODELE=MO,
    CHAM_MATER=MATMECA,
    EXCIT=(_F(CHARGE=ENCAS), _F(CHARGE=SYME), _F(CHARGE=BLOCFISS)),
    NEWTON=_F(REAC_ITER=0),
    COMPORTEMENT=_F(RELATION="ELAS"),
    ETAT_INIT=_F(SIGM=SIEFELGA),
    #                      CONVERGENCE=_F(RESI_GLOB_MAXI=1.E-10),
    INCREMENT=_F(LIST_INST=LIST3),
)

SIEFVERI = CREA_CHAMP(
    TYPE_CHAM="ELGA_SIEF_R", OPERATION="EXTR", RESULTAT=RESVERI, NOM_CHAM="SIEF_ELGA", INST=3
)

DIFSIEF = CREA_CHAMP(
    OPERATION="ASSE",
    MODELE=MO,
    TYPE_CHAM="ELGA_SIEF_R",
    ASSE=(
        _F(CHAM_GD=SIEFELGA, TOUT="OUI", CUMUL="OUI", COEF_R=1.0),
        _F(CHAM_GD=SIEFVERI, TOUT="OUI", CUMUL="OUI", COEF_R=-1.0),
    ),
)

MOYDIF = POST_ELEM(
    CHAM_GD=DIFSIEF,
    MODELE=MO,
    CHAM_MATER=MATMECA,
    INTEGRALE=(
        _F(TOUT="OUI", TYPE_MAILLE="3D", NOM_CHAM="SIEF_ELGA", NOM_CMP="SIXX"),
        _F(TOUT="OUI", TYPE_MAILLE="3D", NOM_CHAM="SIEF_ELGA", NOM_CMP="SIYY"),
        _F(TOUT="OUI", TYPE_MAILLE="3D", NOM_CHAM="SIEF_ELGA", NOM_CMP="SIZZ"),
        _F(TOUT="OUI", TYPE_MAILLE="3D", NOM_CHAM="SIEF_ELGA", NOM_CMP="SIXY"),
        _F(TOUT="OUI", TYPE_MAILLE="3D", NOM_CHAM="SIEF_ELGA", NOM_CMP="SIXZ"),
        _F(TOUT="OUI", TYPE_MAILLE="3D", NOM_CHAM="SIEF_ELGA", NOM_CMP="SIYZ"),
    ),
)

MOYENNE = POST_ELEM(
    CHAM_GD=SIEFVERI,
    MODELE=MO,
    CHAM_MATER=MATMECA,
    INTEGRALE=(
        _F(TOUT="OUI", TYPE_MAILLE="3D", NOM_CHAM="SIEF_ELGA", NOM_CMP="SIXX"),
        _F(TOUT="OUI", TYPE_MAILLE="3D", NOM_CHAM="SIEF_ELGA", NOM_CMP="SIYY"),
        _F(TOUT="OUI", TYPE_MAILLE="3D", NOM_CHAM="SIEF_ELGA", NOM_CMP="SIZZ"),
        _F(TOUT="OUI", TYPE_MAILLE="3D", NOM_CHAM="SIEF_ELGA", NOM_CMP="SIXY"),
        _F(TOUT="OUI", TYPE_MAILLE="3D", NOM_CHAM="SIEF_ELGA", NOM_CMP="SIXZ"),
        _F(TOUT="OUI", TYPE_MAILLE="3D", NOM_CHAM="SIEF_ELGA", NOM_CMP="SIYZ"),
    ),
)

IMPR_TABLE(TABLE=MOYENNE, UNITE=19)
IMPR_TABLE(TABLE=MOYDIF, UNITE=19)

IMPR_RESU(FORMAT="MED", UNITE=80, RESU=_F(RESULTAT=RESVERI))

# -----------------------------------------------------------------------------------------------------------------------------
#                               RESOLUTION DU PROBLEME MECANIQUE A FISSURE OUVERTE ET ETAT_INIT
#                                RESUINI, POUR CONTROLE DES VALEURS
# -----------------------------------------------------------------------------------------------------------------------------


## Resolution ouverture de la fissure en presence d'un champ de contrainte residuelle
RESUINI = STAT_NON_LINE(
    MODELE=MO,
    CHAM_MATER=MATMECA,
    EXCIT=(_F(CHARGE=ENCAS), _F(CHARGE=SYME)),
    NEWTON=_F(REAC_ITER=0),
    COMPORTEMENT=_F(RELATION="ELAS"),
    ETAT_INIT=_F(SIGM=SIEFELGA),
    INCREMENT=_F(LIST_INST=LIST3),
)

## Calcul postraitement
RESUINI = CALC_CHAMP(
    reuse=RESUINI,
    RESULTAT=RESUINI,
    DEFORMATION=("EPSI_ELGA", "EPSP_ELNO"),
    VARI_INTERNE=("VARI_ELNO",),
)

IMPR_RESU(FORMAT="MED", UNITE=81, RESU=_F(RESULTAT=RESUINI))

# -----------------------------------------------------------------------------------------------------------------------------
#                                 POST-TRAITEMENTS
# -----------------------------------------------------------------------------------------------------------------------------

# on va définir les tables suivantes EI = avec Etat Initial

#                   Référence    |     EI_ELGA     EI_ELNO         EI_NOEU
#      G, K :      GKREF(1,2,3)  | GKINIPG(1,2,3) GKINIEL(1,2,3) GKININO(1,2,3)

# POST_K1_K2_K3 :  KREF          |                KINI

# Definition du fond de fissure
FISS = DEFI_FOND_FISS(
    MAILLAGE=MA,
    FOND_FISS=_F(GROUP_MA="LFF1"),
    LEVRE_SUP=_F(GROUP_MA="LEVSUP"),
    LEVRE_INF=_F(GROUP_MA="LEVINF"),
    SYME="NON",
)

# 1 prisme + 6 hexas selon le rayon du tore
# h_ -> taille de maille selon le rayon du tore
h_pris = 0.04
h_hexa = 0.06

# couronne n°1 : 2h-4h
RINF1 = h_pris + h_hexa
RSUP1 = h_pris + 3 * h_hexa

# couronne n°2 : 4h-6h
RINF2 = h_pris + 3 * h_hexa
RSUP2 = h_pris + 5 * h_hexa

# couronne n°2 : 2h-6h
RINF3 = h_pris + h_hexa
RSUP3 = h_pris + 5 * h_hexa

# CALCULS DE REFERENCE, A PARTIR DE RESOUVFI
# Methode G-theta

GKREF1 = CALC_G(
    OPTION=("G", "K"),
    RESULTAT=RESOUVFI,
    INST=1.0,
    THETA=_F(FISSURE=FISS, R_INF=RINF1, R_SUP=RSUP1, DISCRETISATION="LEGENDRE"),
)

GKREF2 = CALC_G(
    OPTION=("G", "K"),
    RESULTAT=RESOUVFI,
    INST=1.0,
    THETA=_F(FISSURE=FISS, R_INF=RINF2, R_SUP=RSUP2, DISCRETISATION="LEGENDRE"),
)

GKREF3 = CALC_G(
    OPTION=("G", "K"),
    RESULTAT=RESOUVFI,
    INST=1.0,
    THETA=_F(FISSURE=FISS, R_INF=RINF3, R_SUP=RSUP3, DISCRETISATION="LEGENDRE"),
)


# Extrapolation des sauts de deplacements
KREF = POST_K1_K2_K3(RESULTAT=RESOUVFI, INST=1, FOND_FISS=FISS)

# CALCULS AVEC ETAT INITIAL, A PARTIR DE RESUINI
# a partir d'un champ de contraintes initiales de type ELGA
GKINIPG1 = CALC_G(
    OPTION=("G", "K"),
    RESULTAT=RESUINI,
    INST=3.0,
    ETAT_INIT=_F(SIGM=SIEFELGA),
    THETA=_F(FISSURE=FISS, R_INF=RINF1, R_SUP=RSUP1, DISCRETISATION="LEGENDRE"),
)

GKINIPG2 = CALC_G(
    OPTION=("G", "K"),
    RESULTAT=RESUINI,
    INST=3.0,
    ETAT_INIT=_F(SIGM=SIEFELGA),
    THETA=_F(FISSURE=FISS, R_INF=RINF2, R_SUP=RSUP2, DISCRETISATION="LEGENDRE"),
)

GKINIPG3 = CALC_G(
    OPTION=("G", "K"),
    RESULTAT=RESUINI,
    INST=3.0,
    ETAT_INIT=_F(SIGM=SIEFELGA),
    THETA=_F(FISSURE=FISS, R_INF=RINF3, R_SUP=RSUP3, DISCRETISATION="LEGENDRE"),
)

# a partir d'un champ de contraintes initiales de type ELNO
GKINIEL1 = CALC_G(
    OPTION=("G", "K"),
    RESULTAT=RESUINI,
    INST=3.0,
    ETAT_INIT=_F(SIGM=SIEFELNO),
    THETA=_F(FISSURE=FISS, R_INF=RINF1, R_SUP=RSUP1, DISCRETISATION="LEGENDRE"),
)

GKINIEL2 = CALC_G(
    OPTION=("G", "K"),
    RESULTAT=RESUINI,
    INST=3.0,
    ETAT_INIT=_F(SIGM=SIEFELNO),
    THETA=_F(FISSURE=FISS, R_INF=RINF2, R_SUP=RSUP2, DISCRETISATION="LEGENDRE"),
)

GKINIEL3 = CALC_G(
    OPTION=("G", "K"),
    RESULTAT=RESUINI,
    INST=3.0,
    ETAT_INIT=_F(SIGM=SIEFELNO),
    THETA=_F(FISSURE=FISS, R_INF=RINF3, R_SUP=RSUP3, DISCRETISATION="LEGENDRE"),
)

# a partir d'un champ de contraintes initiales de type NOEU
GKININO1 = CALC_G(
    OPTION=("G", "K"),
    RESULTAT=RESUINI,
    INST=3.0,
    ETAT_INIT=_F(SIGM=SIEFNOEU),
    THETA=_F(FISSURE=FISS, R_INF=RINF1, R_SUP=RSUP1, DISCRETISATION="LEGENDRE"),
)

GKININO2 = CALC_G(
    OPTION=("G", "K"),
    RESULTAT=RESUINI,
    INST=3.0,
    ETAT_INIT=_F(SIGM=SIEFNOEU),
    THETA=_F(FISSURE=FISS, R_INF=RINF2, R_SUP=RSUP2, DISCRETISATION="LEGENDRE"),
)

GKININO3 = CALC_G(
    OPTION=("G", "K"),
    RESULTAT=RESUINI,
    INST=3.0,
    ETAT_INIT=_F(SIGM=SIEFNOEU),
    THETA=_F(FISSURE=FISS, R_INF=RINF3, R_SUP=RSUP3, DISCRETISATION="LEGENDRE"),
)

# Extrapolation des sauts de deplacements
KINI = POST_K1_K2_K3(FOND_FISS=FISS, RESULTAT=RESUINI, INST=3.0)

# -----------------------------------------------------------------------------------------------------------------------------
#                                 CONFRONTATION DES RESULTATS SOUS FORME DE COURBE
# -----------------------------------------------------------------------------------------------------------------------------

# formule pour le calcul de l'angle en degre
ANGLE = FORMULE(VALE="ABSC_CURV/a * 180./pi", a=a, NOM_PARA="ABSC_CURV")

# ajout de la colonne 'angle'

GKREF1 = CALC_TABLE(
    TABLE=GKREF1, reuse=GKREF1, ACTION=_F(OPERATION="OPER", FORMULE=ANGLE, NOM_PARA="ANGLE")
)
GKREF2 = CALC_TABLE(
    TABLE=GKREF2, reuse=GKREF2, ACTION=_F(OPERATION="OPER", FORMULE=ANGLE, NOM_PARA="ANGLE")
)
GKREF3 = CALC_TABLE(
    TABLE=GKREF3, reuse=GKREF3, ACTION=_F(OPERATION="OPER", FORMULE=ANGLE, NOM_PARA="ANGLE")
)

GKINIPG1 = CALC_TABLE(
    TABLE=GKINIPG1, reuse=GKINIPG1, ACTION=_F(OPERATION="OPER", FORMULE=ANGLE, NOM_PARA="ANGLE")
)
GKINIPG2 = CALC_TABLE(
    TABLE=GKINIPG2, reuse=GKINIPG2, ACTION=_F(OPERATION="OPER", FORMULE=ANGLE, NOM_PARA="ANGLE")
)
GKINIPG3 = CALC_TABLE(
    TABLE=GKINIPG3, reuse=GKINIPG3, ACTION=_F(OPERATION="OPER", FORMULE=ANGLE, NOM_PARA="ANGLE")
)

GKINIEL1 = CALC_TABLE(
    TABLE=GKINIEL1, reuse=GKINIEL1, ACTION=_F(OPERATION="OPER", FORMULE=ANGLE, NOM_PARA="ANGLE")
)
GKINIEL2 = CALC_TABLE(
    TABLE=GKINIEL2, reuse=GKINIEL2, ACTION=_F(OPERATION="OPER", FORMULE=ANGLE, NOM_PARA="ANGLE")
)
GKINIEL3 = CALC_TABLE(
    TABLE=GKINIEL3, reuse=GKINIEL3, ACTION=_F(OPERATION="OPER", FORMULE=ANGLE, NOM_PARA="ANGLE")
)

GKININO1 = CALC_TABLE(
    TABLE=GKININO1, reuse=GKININO1, ACTION=_F(OPERATION="OPER", FORMULE=ANGLE, NOM_PARA="ANGLE")
)
GKININO2 = CALC_TABLE(
    TABLE=GKININO2, reuse=GKININO2, ACTION=_F(OPERATION="OPER", FORMULE=ANGLE, NOM_PARA="ANGLE")
)
GKININO3 = CALC_TABLE(
    TABLE=GKININO3, reuse=GKININO3, ACTION=_F(OPERATION="OPER", FORMULE=ANGLE, NOM_PARA="ANGLE")
)

KREF = CALC_TABLE(
    TABLE=KREF, reuse=KREF, ACTION=_F(OPERATION="OPER", FORMULE=ANGLE, NOM_PARA="ANGLE")
)

KINI = CALC_TABLE(
    TABLE=KINI, reuse=KINI, ACTION=_F(OPERATION="OPER", FORMULE=ANGLE, NOM_PARA="ANGLE")
)

# impression de chaque table
IMPR_TABLE(TABLE=GKREF1, UNITE=9)
IMPR_TABLE(TABLE=GKREF2, UNITE=9)
IMPR_TABLE(TABLE=GKREF3, UNITE=9)

IMPR_TABLE(TABLE=GKINIPG1, UNITE=9)
IMPR_TABLE(TABLE=GKINIPG2, UNITE=9)
IMPR_TABLE(TABLE=GKINIPG3, UNITE=9)

IMPR_TABLE(TABLE=GKINIEL1, UNITE=9)
IMPR_TABLE(TABLE=GKINIEL2, UNITE=9)
IMPR_TABLE(TABLE=GKINIEL3, UNITE=9)

IMPR_TABLE(TABLE=GKININO1, UNITE=9)
IMPR_TABLE(TABLE=GKININO2, UNITE=9)
IMPR_TABLE(TABLE=GKININO3, UNITE=9)

IMPR_TABLE(TABLE=KREF, UNITE=9)
IMPR_TABLE(TABLE=KINI, UNITE=9)


# -----------------------------------------------------------------------------------------------------------------------------
#                                 TRACE DES COURBES
# -----------------------------------------------------------------------------------------------------------------------------

# courbes de G, pour la couronne n°1
C_GKREF1 = RECU_FONCTION(TABLE=GKREF1, PARA_X="ANGLE", PARA_Y="G")

C_KREF = RECU_FONCTION(TABLE=KREF, PARA_X="ANGLE", PARA_Y="G")

GKINIPG = RECU_FONCTION(TABLE=GKINIPG1, PARA_X="ANGLE", PARA_Y="G")

IMPR_FONCTION(
    FORMAT="XMGRACE",
    UNITE=30,
    COURBE=(
        _F(FONCTION=C_GKREF1, LEGENDE="G reference", STYLE=1, MARQUEUR=0, COULEUR=1),
        _F(FONCTION=GKINIPG, LEGENDE="G etat intial PG", STYLE=3, MARQUEUR=0, COULEUR=2),
    ),
    TITRE="Taux de restitution d energie",
    BORNE_X=(0.0, 180),
    BORNE_Y=(0.0, 2e6),
    LEGENDE_X="angle (degre)",
    LEGENDE_Y=r"G (J.m\S-2\N)",
)


# courbe de K1, pour la couronne n°1

C_GKREF1 = RECU_FONCTION(TABLE=GKREF1, PARA_X="ANGLE", PARA_Y="K1")

C1KREF = RECU_FONCTION(TABLE=KREF, PARA_X="ANGLE", PARA_Y="K1")

C1KINI = RECU_FONCTION(TABLE=KINI, PARA_X="ANGLE", PARA_Y="K1")

CKINIPG1 = RECU_FONCTION(TABLE=GKINIPG1, PARA_X="ANGLE", PARA_Y="K1")

IMPR_FONCTION(
    FORMAT="XMGRACE",
    UNITE=31,
    COURBE=(
        _F(FONCTION=C_GKREF1, LEGENDE="K1 CALC_G reference", MARQUEUR=0, COULEUR=1),
        _F(FONCTION=C1KREF, LEGENDE="K1 POST_K1_K2_K3 reference", MARQUEUR=8, COULEUR=1),
        _F(FONCTION=CKINIPG1, LEGENDE="K1 CALC_G", MARQUEUR=0, COULEUR=3),
        _F(FONCTION=C1KINI, LEGENDE="K1 POST_K1_K2_K3", MARQUEUR=9, COULEUR=2),
    ),
    TITRE="K1",
    BORNE_X=(0.0, 180),
    BORNE_Y=(0.0, 7e8),
    LEGENDE_X="angle (degre)",
    LEGENDE_Y=r"KI (Pa.m\S-1/2\N)",
)

# ---------------------------------------------------------------------
#                VERIFICATIONS DES VALEURS
# ---------------------------------------------------------------------

# G de CALC_G
# -----------

# valeurs de référence (thermique)
Gref1 = 1916455.955885653
Gref2 = 1915736.9928541533
Gref3 = 1916096.474434135

# G de CALC_G Reference pour les 3 couronnes
TEST_TABLE(TABLE=GKREF1, NOM_PARA="G", TYPE_TEST="MAX", VALE_CALC=Gref1)  # pour la non-régression

TEST_TABLE(
    TABLE=GKREF2,
    NOM_PARA="G",
    TYPE_TEST="MAX",
    CRITERE="RELATIF",
    REFERENCE="AUTRE_ASTER",
    PRECISION=0.04e-2,
    VALE_REFE=Gref1,
    VALE_CALC=Gref2,  # pour la non-régression
)

TEST_TABLE(
    TABLE=GKREF3,
    NOM_PARA="G",
    TYPE_TEST="MAX",
    CRITERE="RELATIF",
    REFERENCE="AUTRE_ASTER",
    PRECISION=0.04e-2,
    VALE_REFE=Gref1,
    VALE_CALC=Gref3,  # pour la non-régression
)


# G de CALC_G Etat Initial avec Contrainte aux Points de Gauss, pour les 3 couronnes
TEST_TABLE(
    TABLE=GKINIPG1,
    NOM_PARA="G",
    TYPE_TEST="MAX",
    CRITERE="RELATIF",
    REFERENCE="AUTRE_ASTER",
    PRECISION=0.02e-2,
    VALE_REFE=Gref1,
    VALE_CALC=1916813.3625676215,  # pour la non-régression
)

TEST_TABLE(
    TABLE=GKINIPG2,
    NOM_PARA="G",
    TYPE_TEST="MAX",
    CRITERE="RELATIF",
    REFERENCE="AUTRE_ASTER",
    PRECISION=0.05e-2,
    VALE_REFE=Gref2,
    VALE_CALC=1916492.6464102152,  # pour la non-régression
)

TEST_TABLE(
    TABLE=GKINIPG3,
    NOM_PARA="G",
    TYPE_TEST="MAX",
    CRITERE="RELATIF",
    REFERENCE="AUTRE_ASTER",
    PRECISION=0.04e-2,
    VALE_REFE=Gref3,
    VALE_CALC=1916653.0045046618,  # pour la non-régression
)

# G de CALC_G Etat Initial avec Contrainte aux Noeuds par élément, pour les 3 couronnes
TEST_TABLE(
    TABLE=GKINIEL1,
    NOM_PARA="G",
    TYPE_TEST="MAX",
    CRITERE="RELATIF",
    REFERENCE="AUTRE_ASTER",
    PRECISION=0.02e-2,
    VALE_REFE=Gref1,
    VALE_CALC=1916813.3625676215,  # pour la non-régression
)

TEST_TABLE(
    TABLE=GKINIEL2,
    NOM_PARA="G",
    TYPE_TEST="MAX",
    CRITERE="RELATIF",
    REFERENCE="AUTRE_ASTER",
    PRECISION=0.05e-2,
    VALE_REFE=Gref2,
    VALE_CALC=1916492.6464102152,  # pour la non-régression
)

TEST_TABLE(
    TABLE=GKINIEL3,
    NOM_PARA="G",
    TYPE_TEST="MAX",
    CRITERE="RELATIF",
    REFERENCE="AUTRE_ASTER",
    PRECISION=0.04e-2,
    VALE_REFE=Gref3,
    VALE_CALC=1916653.0045046618,  # pour la non-régression
)

# G de CALC_G Etat Initial avec Contrainte aux Noeuds, pour les 3 couronnes
TEST_TABLE(
    TABLE=GKININO1,
    NOM_PARA="G",
    TYPE_TEST="MAX",
    CRITERE="RELATIF",
    REFERENCE="AUTRE_ASTER",
    PRECISION=0.02e-2,
    VALE_REFE=Gref1,
    VALE_CALC=1916768.704070899,  # pour la non-régression
)

TEST_TABLE(
    TABLE=GKININO2,
    NOM_PARA="G",
    TYPE_TEST="MAX",
    CRITERE="RELATIF",
    REFERENCE="AUTRE_ASTER",
    PRECISION=0.06e-2,
    VALE_REFE=Gref2,
    VALE_CALC=1916695.0907752165,  # pour la non-régression
)

TEST_TABLE(
    TABLE=GKININO3,
    NOM_PARA="G",
    TYPE_TEST="MAX",
    CRITERE="RELATIF",
    REFERENCE="AUTRE_ASTER",
    PRECISION=0.05e-2,
    VALE_REFE=Gref3,
    VALE_CALC=1916731.8974872357,  # pour la non-régression
)


# K de CALC_G
# -------------

# K1 : valeurs de référence (thermique)
Kref1 = 661296736.8033423
Kref2 = 671741156.1883879
Kref3 = 666518946.3506051

TEST_TABLE(
    TABLE=GKREF1,
    NOM_PARA="K1",
    FILTRE=_F(NOM_PARA="ANGLE", VALE=89.8555),
    VALE_CALC=Kref1,  # pour la non-régression
)

TEST_TABLE(
    TABLE=GKREF2,
    NOM_PARA="K1",
    FILTRE=_F(NOM_PARA="ANGLE", VALE=89.8555),
    CRITERE="RELATIF",
    REFERENCE="AUTRE_ASTER",
    PRECISION=2.0e-2,
    VALE_REFE=Kref1,
    VALE_CALC=Kref2,  # pour la non-régression
)

TEST_TABLE(
    TABLE=GKREF3,
    NOM_PARA="K1",
    FILTRE=_F(NOM_PARA="ANGLE", VALE=89.8555),
    CRITERE="RELATIF",
    REFERENCE="AUTRE_ASTER",
    PRECISION=1.0e-2,
    VALE_REFE=Kref1,
    VALE_CALC=Kref3,  # pour la non-régression
)


TEST_TABLE(
    TABLE=GKINIPG1,
    NOM_PARA="K1",
    FILTRE=_F(NOM_PARA="ANGLE", VALE=89.8555),
    CRITERE="RELATIF",
    REFERENCE="AUTRE_ASTER",
    PRECISION=0.02e-2,
    VALE_REFE=Kref1,
    VALE_CALC=661364453.0950941,  # pour la non-régression
)

TEST_TABLE(
    TABLE=GKINIPG2,
    NOM_PARA="K1",
    FILTRE=_F(NOM_PARA="ANGLE", VALE=89.8555),
    CRITERE="RELATIF",
    REFERENCE="AUTRE_ASTER",
    PRECISION=0.01e-2,
    VALE_REFE=Kref2,
    VALE_CALC=671804848.035064,  # pour la non-régression
)

TEST_TABLE(
    TABLE=GKINIPG3,
    NOM_PARA="K1",
    FILTRE=_F(NOM_PARA="ANGLE", VALE=89.8555),
    CRITERE="RELATIF",
    REFERENCE="AUTRE_ASTER",
    PRECISION=0.01e-2,
    VALE_REFE=Kref3,
    VALE_CALC=666584650.4207697,  # pour la non-régression
)


TEST_TABLE(
    TABLE=GKINIEL1,
    NOM_PARA="K1",
    FILTRE=_F(NOM_PARA="ANGLE", VALE=89.8555),
    CRITERE="RELATIF",
    REFERENCE="AUTRE_ASTER",
    PRECISION=0.02e-2,
    VALE_REFE=Kref1,
    VALE_CALC=661364453.0950941,  # pour la non-régression
)

TEST_TABLE(
    TABLE=GKINIEL2,
    NOM_PARA="K1",
    FILTRE=_F(NOM_PARA="ANGLE", VALE=89.8555),
    CRITERE="RELATIF",
    REFERENCE="AUTRE_ASTER",
    PRECISION=0.01e-2,
    VALE_REFE=Kref2,
    VALE_CALC=671804848.035064,  # pour la non-régression
)

TEST_TABLE(
    TABLE=GKINIEL3,
    NOM_PARA="K1",
    FILTRE=_F(NOM_PARA="ANGLE", VALE=89.8555),
    CRITERE="RELATIF",
    REFERENCE="AUTRE_ASTER",
    PRECISION=0.01e-2,
    VALE_REFE=Kref3,
    VALE_CALC=666584650.4207697,  # pour la non-régression
)


TEST_TABLE(
    TABLE=GKININO1,
    NOM_PARA="K1",
    FILTRE=_F(NOM_PARA="ANGLE", VALE=89.8555),
    CRITERE="RELATIF",
    REFERENCE="AUTRE_ASTER",
    PRECISION=0.011e-2,
    VALE_REFE=Kref1,
    VALE_CALC=661367339.4687599,  # pour la non-régression
)

TEST_TABLE(
    TABLE=GKININO2,
    NOM_PARA="K1",
    FILTRE=_F(NOM_PARA="ANGLE", VALE=89.8555),
    CRITERE="RELATIF",
    REFERENCE="AUTRE_ASTER",
    PRECISION=0.02e-2,
    VALE_REFE=Kref2,
    VALE_CALC=671821380.4990201,  # pour la non-régression
)

TEST_TABLE(
    TABLE=GKININO3,
    NOM_PARA="K1",
    FILTRE=_F(NOM_PARA="ANGLE", VALE=89.8555),
    CRITERE="RELATIF",
    REFERENCE="AUTRE_ASTER",
    PRECISION=0.02e-2,
    VALE_REFE=Kref3,
    VALE_CALC=666594359.8396053,  # pour la non-régression
)


# K de POST_K1_K2_K3
# ------------------

# K1 : valeurs de référence pour POST_K1_K2_K3 (thermique)
Kpk1 = 621503720.1125491

TEST_TABLE(
    TABLE=KREF,
    NOM_PARA="K1",
    FILTRE=_F(NOM_PARA="ANGLE", VALE=89.8555),
    VALE_CALC=Kpk1,  # pour la non-régression
)

TEST_TABLE(
    TABLE=KINI,
    NOM_PARA="K1",
    FILTRE=_F(NOM_PARA="ANGLE", VALE=89.8555),
    CRITERE="RELATIF",
    REFERENCE="AUTRE_ASTER",
    PRECISION=0.01e-2,
    VALE_REFE=Kpk1,
    VALE_CALC=621503720.1125672,  # pour la non-régression
)


FIN()
