# coding=utf-8
# --------------------------------------------------------------------
# Copyright (C) 1991 - 2025 - EDF R&D - www.code-aster.org
# This file is part of code_aster.
#
# code_aster is free software: you can redistribute it and/or modify
# it under the terms of the GNU General Public License as published by
# the Free Software Foundation, either version 3 of the License, or
# (at your option) any later version.
#
# code_aster is distributed in the hope that it will be useful,
# but WITHOUT ANY WARRANTY; without even the implied warranty of
# MERCHANTABILITY or FITNESS FOR A PARTICULAR PURPOSE.  See the
# GNU General Public License for more details.
#
# You should have received a copy of the GNU General Public License
# along with code_aster.  If not, see <http://www.gnu.org/licenses/>.
# --------------------------------------------------------------------

# person_in_charge: mickael.abbas at edf.fr
#
# CALCUL AXISYMETRIQUE
# ELEMENTS QUAD8 ET SEG3 POUR APPLICATION DE LA PRESSION
# .....................................................................

DEBUT(CODE="OUI", ERREUR=_F(ALARME="EXCEPTION"))

MAYA = LIRE_MAILLAGE(FORMAT="MED")

MODEL = AFFE_MODELE(MAILLAGE=MAYA, AFFE=_F(TOUT="OUI", PHENOMENE="MECANIQUE", MODELISATION="AXIS"))

ACIER = DEFI_MATERIAU(ELAS=_F(E=3.0e7, NU=0.3), ECRO_LINE=_F(D_SIGM_EPSI=0.0, SY=3.0e4))

MATER = AFFE_MATERIAU(MAILLAGE=MAYA, AFFE=_F(TOUT="OUI", MATER=ACIER))

PRES_FO = DEFI_FONCTION(
    NOM_PARA="INST", PROL_DROITE="EXCLU", PROL_GAUCHE="EXCLU", VALE=(0.0, 0.0, 1.0, 1143.392)
)

PRES = AFFE_CHAR_MECA_F(MODELE=MODEL, PRES_REP=_F(GROUP_MA="FACE", PRES=PRES_FO))

CONDLIM = AFFE_CHAR_MECA(
    MODELE=MODEL, DDL_IMPO=(_F(GROUP_NO="FIX_C1", DX=0.0), _F(GROUP_NO="FIX_C2", DY=0.0))
)

CAT = DEFI_LIST_REEL(DEBUT=0.0, INTERVALLE=_F(JUSQU_A=1.0, NOMBRE=50))

CALCNL = STAT_NON_LINE(
    MODELE=MODEL,
    CHAM_MATER=MATER,
    COMPORTEMENT=_F(RELATION="VMIS_ISOT_LINE"),
    INCREMENT=_F(LIST_INST=CAT),
    NEWTON=_F(MATRICE="TANGENTE", REAC_ITER=1),
    CONVERGENCE=_F(RESI_GLOB_RELA=1.0e-6, ITER_GLOB_MAXI=50),
    EXCIT=(_F(CHARGE=PRES), _F(CHARGE=CONDLIM)),
    RECH_LINEAIRE=_F(ITER_LINE_MAXI=3),
)

CALCNL = CALC_CHAMP(
    reuse=CALCNL, CONTRAINTE=("SIGM_ELNO"), VARI_INTERNE=("VARI_ELNO"), RESULTAT=CALCNL
)

TEST_RESU(
    RESU=(
        _F(
            NUME_ORDRE=50,
            RESULTAT=CALCNL,
            NOM_CHAM="SIGM_ELNO",
            GROUP_NO="NO002329",
            NOM_CMP="SIZZ",
            VALE_CALC=2.99782350e04,
            VALE_REFE=2.9956881115799999e4,
            REFERENCE="NON_DEFINI",
            CRITERE="RELATIF",
            PRECISION=0.050000000000000003,
            GROUP_MA="MA000544",
        ),
        _F(
            NUME_ORDRE=50,
            RESULTAT=CALCNL,
            NOM_CHAM="SIGM_ELNO",
            GROUP_NO="NO001139",
            NOM_CMP="SIZZ",
            VALE_CALC=-3.49081285e04,
            VALE_REFE=-3.5102146956299999e4,
            REFERENCE="NON_DEFINI",
            CRITERE="RELATIF",
            PRECISION=0.050000000000000003,
            GROUP_MA="MA000264",
        ),
        _F(
            NUME_ORDRE=50,
            RESULTAT=CALCNL,
            NOM_CHAM="SIGM_ELNO",
            GROUP_NO="NO000017",
            NOM_CMP="SIZZ",
            VALE_CALC=2.74548004e04,
            VALE_REFE=2.7441417799999999e4,
            REFERENCE="NON_DEFINI",
            CRITERE="RELATIF",
            PRECISION=0.050000000000000003,
            GROUP_MA="MA000008",
        ),
        _F(
            NUME_ORDRE=50,
            RESULTAT=CALCNL,
            NOM_CHAM="SIGM_ELNO",
            GROUP_NO="NO002313",
            NOM_CMP="SIZZ",
            VALE_CALC=2.88473439e04,
            VALE_REFE=2.8848933799999999e4,
            REFERENCE="NON_DEFINI",
            CRITERE="RELATIF",
            PRECISION=0.050000000000000003,
            GROUP_MA="MA000537",
        ),
        _F(
            NUME_ORDRE=50,
            RESULTAT=CALCNL,
            NOM_CHAM="SIGM_ELNO",
            GROUP_NO="NO001701",
            NOM_CMP="SIZZ",
            VALE_CALC=3.42535131e04,
            VALE_REFE=3.4186289599999996e4,
            REFERENCE="NON_DEFINI",
            CRITERE="RELATIF",
            PRECISION=0.050000000000000003,
            GROUP_MA="MA000393",
        ),
        _F(
            NUME_ORDRE=50,
            RESULTAT=CALCNL,
            NOM_CHAM="SIGM_ELNO",
            GROUP_NO="NO001429",
            NOM_CMP="SIZZ",
            VALE_CALC=-1.86311948e04,
            VALE_REFE=-1.8439489300000001e4,
            REFERENCE="NON_DEFINI",
            CRITERE="RELATIF",
            PRECISION=0.050000000000000003,
            GROUP_MA="MA000329",
        ),
        _F(
            NUME_ORDRE=50,
            RESULTAT=CALCNL,
            NOM_CHAM="SIGM_ELNO",
            GROUP_NO="NO000851",
            NOM_CMP="SIZZ",
            VALE_CALC=-1.56636094e04,
            VALE_REFE=-1.57285059e4,
            REFERENCE="NON_DEFINI",
            CRITERE="RELATIF",
            PRECISION=0.050000000000000003,
            GROUP_MA="MA000193",
        ),
        _F(
            NUME_ORDRE=50,
            RESULTAT=CALCNL,
            NOM_CHAM="SIGM_ELNO",
            GROUP_NO="NO000001",
            NOM_CMP="SIZZ",
            VALE_CALC=2.85991194e04,
            VALE_REFE=2.8593957299999998e4,
            REFERENCE="NON_DEFINI",
            CRITERE="RELATIF",
            PRECISION=0.050000000000000003,
            GROUP_MA="MA000001",
        ),
        _F(
            NUME_ORDRE=25,
            RESULTAT=CALCNL,
            NOM_CHAM="DEPL",
            GROUP_NO="NO002313",
            NOM_CMP="DY",
            VALE_CALC=0.100946856,
            VALE_REFE=0.10094499999999999,
            REFERENCE="NON_DEFINI",
            CRITERE="RELATIF",
            PRECISION=0.050000000000000003,
        ),
        _F(
            NUME_ORDRE=50,
            RESULTAT=CALCNL,
            NOM_CHAM="DEPL",
            GROUP_NO="NO002313",
            NOM_CMP="DY",
            VALE_CALC=0.370470093,
            VALE_REFE=0.37046800000000002,
            REFERENCE="NON_DEFINI",
            CRITERE="RELATIF",
            PRECISION=0.050000000000000003,
        ),
    )
)

FIN()
#
