# coding=utf-8
# --------------------------------------------------------------------
# Copyright (C) 1991 - 2025 - EDF R&D - www.code-aster.org
# This file is part of code_aster.
#
# code_aster is free software: you can redistribute it and/or modify
# it under the terms of the GNU General Public License as published by
# the Free Software Foundation, either version 3 of the License, or
# (at your option) any later version.
#
# code_aster is distributed in the hope that it will be useful,
# but WITHOUT ANY WARRANTY; without even the implied warranty of
# MERCHANTABILITY or FITNESS FOR A PARTICULAR PURPOSE.  See the
# GNU General Public License for more details.
#
# You should have received a copy of the GNU General Public License
# along with code_aster.  If not, see <http://www.gnu.org/licenses/>.
# --------------------------------------------------------------------

# ======================================================================
# Dans ce cas de test, on simule un cas avec les deux lois de
# comportement DRUCKER-PRAGER en condition associee et non-associee
# =====================================================================

DEBUT(CODE="OUI", ERREUR=_F(ALARME="EXCEPTION"), DEBUG=_F(SDVERI="NON"))
# SDVERI='NON' car la verification est trop couteuse en CPU

MAILLAGE = LIRE_MAILLAGE(FORMAT="ASTER")

MATER = DEFI_MATERIAU(
    ELAS=_F(E=1.0e9, NU=0.3, RHO=2764.0, ALPHA=0.0),
    DRUCK_PRAGER=_F(
        ECROUISSAGE="PARABOLIQUE", ALPHA=0.328, P_ULTM=0.0125, SY=2.11e6, SY_ULTM=1.00e6
    ),
)

CHMAT = AFFE_MATERIAU(MAILLAGE=MAILLAGE, AFFE=_F(TOUT="OUI", MATER=MATER))

MODELE = AFFE_MODELE(
    MAILLAGE=MAILLAGE, AFFE=_F(TOUT="OUI", PHENOMENE="MECANIQUE", MODELISATION="D_PLAN")
)

# ***********************************************************************
# *** CHARGEMENT MECANIQUE : FORCE DE COMPRESSION + DDL IMPOSES ********
# ***********************************************************************
SIGINIT = CREA_CHAMP(
    TYPE_CHAM="ELGA_SIEF_R",
    OPERATION="AFFE",
    MODELE=MODELE,
    AFFE=_F(TOUT="OUI", NOM_CMP=("SIXX", "SIYY", "SIZZ", "SIXY"), VALE=(0.0, 0.0, 0.0, 0.0)),
)

CHAR_UM3 = AFFE_CHAR_MECA(MODELE=MODELE, PRES_REP=_F(GROUP_MA="M3", PRES=0.0))

CHAR_UM4 = AFFE_CHAR_MECA(MODELE=MODELE, PRES_REP=_F(GROUP_MA="M4", PRES=0.0))

CHAR_UM5 = AFFE_CHAR_MECA(MODELE=MODELE, PRES_REP=_F(GROUP_MA="M5", PRES=0.0))

DEPL_M2 = AFFE_CHAR_MECA(MODELE=MODELE, DDL_IMPO=_F(GROUP_MA="M2", DY=0.0))

DEPL_M5 = AFFE_CHAR_MECA(MODELE=MODELE, DDL_IMPO=_F(GROUP_MA="M5", DX=0.0))

DEPL_M4 = AFFE_CHAR_MECA(MODELE=MODELE, FACE_IMPO=_F(GROUP_MA="M4", DY=1.0))

COEF2 = DEFI_FONCTION(
    NOM_PARA="INST",
    PROL_DROITE="CONSTANT",
    PROL_GAUCHE="CONSTANT",
    VALE=(0.0, -0.000, 0.5, -0.008, 1.0, -0.016),
)

TEMPS = DEFI_LIST_REEL(DEBUT=0.0, INTERVALLE=(_F(JUSQU_A=1.000, NOMBRE=100),))

U1 = STAT_NON_LINE(
    MODELE=MODELE,
    CHAM_MATER=CHMAT,
    EXCIT=(
        _F(CHARGE=CHAR_UM3),
        _F(CHARGE=DEPL_M5),
        _F(CHARGE=DEPL_M2),
        _F(CHARGE=DEPL_M4, FONC_MULT=COEF2),
    ),
    COMPORTEMENT=_F(RELATION="DRUCK_PRAGER"),
    NEWTON=_F(MATRICE="TANGENTE", REAC_ITER=1),
    ETAT_INIT=_F(SIGM=SIGINIT),
    CONVERGENCE=_F(RESI_GLOB_RELA=1.0e-10, ITER_GLOB_MAXI=50),
    INCREMENT=_F(LIST_INST=TEMPS),
)

U1 = CALC_CHAMP(
    reuse=U1, RESULTAT=U1, CONTRAINTE="SIGM_NOEU", VARI_INTERNE="VARI_NOEU", CRITERES="SIEQ_NOEU"
)

TEST_RESU(
    RESU=(
        _F(
            NUME_ORDRE=25,
            RESULTAT=U1,
            NOM_CHAM="SIGM_NOEU",
            GROUP_NO="N4",
            NOM_CMP="SIYY",
            VALE_CALC=-4395604.395604386,
            GROUP_MA="M1",
        ),
        _F(
            NUME_ORDRE=50,
            RESULTAT=U1,
            NOM_CHAM="SIGM_NOEU",
            GROUP_NO="N4",
            NOM_CMP="SIYY",
            VALE_CALC=-3059914.7389052412,
            GROUP_MA="M1",
        ),
        _F(
            NUME_ORDRE=100,
            RESULTAT=U1,
            NOM_CHAM="SIGM_NOEU",
            GROUP_NO="N4",
            NOM_CMP="SIYY",
            VALE_CALC=-3066403.833644595,
            GROUP_MA="M1",
        ),
        _F(
            NUME_ORDRE=50,
            RESULTAT=U1,
            NOM_CHAM="VARI_NOEU",
            GROUP_NO="N4",
            NOM_CMP="V1",
            VALE_CALC=0.01434105709466667,
            CRITERE="ABSOLU",
        ),
        _F(
            NUME_ORDRE=100,
            RESULTAT=U1,
            NOM_CHAM="VARI_NOEU",
            GROUP_NO="N4",
            NOM_CMP="V1",
            VALE_CALC=0.03903038173473686,
        ),
        _F(
            INST=0.25,
            REFERENCE="ANALYTIQUE",
            RESULTAT=U1,
            NOM_CHAM="DEPL",
            GROUP_NO="N4",
            NOM_CMP="DY",
            VALE_CALC=-0.0040,
            VALE_REFE=-0.0040,
            PRECISION=1.0e-3,
        ),
        _F(
            INST=0.5,
            REFERENCE="ANALYTIQUE",
            RESULTAT=U1,
            NOM_CHAM="DEPL",
            GROUP_NO="N4",
            NOM_CMP="DY",
            VALE_CALC=-0.008000,
            VALE_REFE=-0.008000,
            PRECISION=1.0e-3,
        ),
        _F(
            INST=1.0,
            REFERENCE="ANALYTIQUE",
            RESULTAT=U1,
            NOM_CHAM="DEPL",
            GROUP_NO="N4",
            NOM_CMP="DY",
            VALE_CALC=-0.016,
            VALE_REFE=-0.016,
            PRECISION=1.0e-3,
        ),
    )
)

#######################################################################
##  DRUCKER_PRAGER_NA ECROUISSAGE LINEAIRE
#######################################################################

MATER2 = DEFI_MATERIAU(
    ELAS=_F(E=1.0e9, NU=0.3, RHO=2764.0, ALPHA=0.0),
    DRUCK_PRAGER=_F(
        ECROUISSAGE="LINEAIRE",
        ALPHA=0.328,
        DILAT=0.328,
        P_ULTM=0.0125,
        SY=2.11e6,
        H=-(2.11e6 - 1.00e6) / 0.0125,
    ),
)

CHMAT2 = AFFE_MATERIAU(MAILLAGE=MAILLAGE, AFFE=_F(TOUT="OUI", MATER=MATER2))


U2 = STAT_NON_LINE(
    MODELE=MODELE,
    CHAM_MATER=CHMAT2,
    EXCIT=(
        _F(CHARGE=CHAR_UM3),
        _F(CHARGE=DEPL_M5),
        _F(CHARGE=DEPL_M2),
        _F(CHARGE=DEPL_M4, FONC_MULT=COEF2),
    ),
    COMPORTEMENT=_F(RELATION="DRUCK_PRAG_N_A"),
    NEWTON=_F(MATRICE="TANGENTE", REAC_ITER=1),
    ETAT_INIT=_F(SIGM=SIGINIT),
    CONVERGENCE=_F(RESI_GLOB_RELA=1.0e-10, ITER_GLOB_MAXI=50),
    INCREMENT=_F(LIST_INST=TEMPS),
)
U2 = CALC_CHAMP(
    reuse=U2, RESULTAT=U2, CONTRAINTE="SIGM_NOEU", VARI_INTERNE="VARI_NOEU", CRITERES="SIEQ_NOEU"
)

##On compare aux resultats obtenus avec DRUCKER_PRAGER ecrouissage lineaire
TEST_RESU(
    RESU=(
        _F(
            NUME_ORDRE=25,
            RESULTAT=U2,
            NOM_CHAM="SIGM_NOEU",
            GROUP_NO="N4",
            NOM_CMP="SIYY",
            REFERENCE="AUTRE_ASTER",
            VALE_REFE=-4395604.395604386,
            VALE_CALC=-4395604.395604386,
            PRECISION=0.0025,
            GROUP_MA="M1",
        ),
        _F(
            NUME_ORDRE=50,
            RESULTAT=U2,
            NOM_CHAM="SIGM_NOEU",
            GROUP_NO="N4",
            NOM_CMP="SIYY",
            VALE_CALC=-4288053.856208381,
            GROUP_MA="M1",
        ),
        _F(
            NUME_ORDRE=100,
            RESULTAT=U2,
            NOM_CHAM="SIGM_NOEU",
            GROUP_NO="N4",
            NOM_CMP="SIYY",
            VALE_CALC=-2703972.0263195625,
            GROUP_MA="M1",
        ),
        _F(
            NUME_ORDRE=50,
            RESULTAT=U2,
            NOM_CHAM="VARI_NOEU",
            GROUP_NO="N4",
            NOM_CMP="V1",
            VALE_CALC=0.007334486141826949,
        ),
        _F(
            NUME_ORDRE=100,
            RESULTAT=U2,
            NOM_CHAM="VARI_NOEU",
            GROUP_NO="N4",
            NOM_CMP="V1",
            VALE_CALC=0.019084585032183028,
        ),
        _F(
            INST=0.25,
            REFERENCE="ANALYTIQUE",
            RESULTAT=U2,
            NOM_CHAM="DEPL",
            GROUP_NO="N4",
            NOM_CMP="DY",
            VALE_CALC=-0.0040,
            VALE_REFE=-0.0040,
            PRECISION=1.0e-3,
        ),
        _F(
            INST=0.5,
            REFERENCE="ANALYTIQUE",
            RESULTAT=U2,
            NOM_CHAM="DEPL",
            GROUP_NO="N4",
            NOM_CMP="DY",
            VALE_CALC=-0.008000,
            VALE_REFE=-0.008000,
            PRECISION=1.0e-3,
        ),
        _F(
            INST=1.0,
            REFERENCE="ANALYTIQUE",
            RESULTAT=U2,
            NOM_CHAM="DEPL",
            GROUP_NO="N4",
            NOM_CMP="DY",
            VALE_CALC=-0.016,
            VALE_REFE=-0.016,
            PRECISION=1.0e-3,
        ),
    )
)

#######################################################################
##  DRUCKER_PRAGER_NA ECROUISSAGE PARABOLIQUE
#######################################################################

MATER3 = DEFI_MATERIAU(
    ELAS=_F(E=1.0e9, NU=0.3, RHO=2764.0, ALPHA=0.0),
    DRUCK_PRAGER=_F(
        ECROUISSAGE="PARABOLIQUE",
        ALPHA=0.328,
        DILAT=0.328,
        P_ULTM=0.0125,
        SY=2.11e6,
        SY_ULTM=1.00e6,
    ),
)

CHMAT3 = AFFE_MATERIAU(MAILLAGE=MAILLAGE, AFFE=_F(TOUT="OUI", MATER=MATER3))


U3 = STAT_NON_LINE(
    MODELE=MODELE,
    CHAM_MATER=CHMAT3,
    EXCIT=(
        _F(CHARGE=CHAR_UM3),
        _F(CHARGE=DEPL_M5),
        _F(CHARGE=DEPL_M2),
        _F(CHARGE=DEPL_M4, FONC_MULT=COEF2),
    ),
    COMPORTEMENT=_F(RELATION="DRUCK_PRAG_N_A"),
    NEWTON=_F(MATRICE="TANGENTE", REAC_ITER=1),
    ETAT_INIT=_F(SIGM=SIGINIT),
    CONVERGENCE=_F(RESI_GLOB_RELA=1.0e-10, ITER_GLOB_MAXI=50),
    INCREMENT=_F(LIST_INST=TEMPS),
)

U3 = CALC_CHAMP(
    reuse=U3, RESULTAT=U3, CONTRAINTE="SIGM_NOEU", VARI_INTERNE="VARI_NOEU", CRITERES="SIEQ_NOEU"
)

##On compare aux resultats obtenus avec DRUCKER_PRAGER ecrouissage lineaire
TEST_RESU(
    RESU=(
        _F(
            NUME_ORDRE=25,
            RESULTAT=U3,
            NOM_CHAM="SIGM_NOEU",
            GROUP_NO="N4",
            NOM_CMP="SIYY",
            REFERENCE="AUTRE_ASTER",
            VALE_REFE=-4395604.395604386,
            VALE_CALC=-4395604.395604386,
            PRECISION=0.0025,
            GROUP_MA="M1",
        ),
        _F(
            NUME_ORDRE=50,
            RESULTAT=U3,
            NOM_CHAM="SIGM_NOEU",
            GROUP_NO="N4",
            NOM_CMP="SIYY",
            VALE_CALC=-3264519.7997929174,
            GROUP_MA="M1",
        ),
        _F(
            NUME_ORDRE=100,
            RESULTAT=U3,
            NOM_CHAM="SIGM_NOEU",
            GROUP_NO="N4",
            NOM_CMP="SIYY",
            VALE_CALC=-2693856.195713495,
            GROUP_MA="M1",
        ),
        _F(
            NUME_ORDRE=50,
            RESULTAT=U3,
            NOM_CHAM="VARI_NOEU",
            GROUP_NO="N4",
            NOM_CMP="V1",
            VALE_CALC=0.008780208059968772,
        ),
        _F(
            NUME_ORDRE=100,
            RESULTAT=U3,
            NOM_CHAM="VARI_NOEU",
            GROUP_NO="N4",
            NOM_CMP="V1",
            VALE_CALC=0.01909772846009783,
        ),
        _F(
            INST=0.25,
            REFERENCE="ANALYTIQUE",
            RESULTAT=U3,
            NOM_CHAM="DEPL",
            GROUP_NO="N4",
            NOM_CMP="DY",
            VALE_CALC=-0.0040,
            VALE_REFE=-0.0040,
            PRECISION=1.0e-3,
        ),
        _F(
            INST=0.5,
            REFERENCE="ANALYTIQUE",
            RESULTAT=U3,
            NOM_CHAM="DEPL",
            GROUP_NO="N4",
            NOM_CMP="DY",
            VALE_CALC=-0.008000,
            VALE_REFE=-0.008000,
            PRECISION=1.0e-3,
        ),
        _F(
            INST=1.0,
            REFERENCE="ANALYTIQUE",
            RESULTAT=U3,
            NOM_CHAM="DEPL",
            GROUP_NO="N4",
            NOM_CMP="DY",
            VALE_CALC=-0.016,
            VALE_REFE=-0.016,
            PRECISION=1.0e-3,
        ),
    )
)

#######################################################################
##  DRUCKER_PRAGER_NA ECROUISSAGE EXPONENTIEL
#######################################################################

MATER4 = DEFI_MATERIAU(
    ELAS=_F(E=1.0e9, NU=0.3, RHO=2764.0, ALPHA=0.0),
    DRUCK_PRAGER=_F(
        ECROUISSAGE="EXPONENTIEL", ALPHA=0.328, DILAT=0.328, P_C=0.0125, SY=2.11e6, SY_ULTM=1.00e6
    ),
)

CHMAT4 = AFFE_MATERIAU(MAILLAGE=MAILLAGE, AFFE=_F(TOUT="OUI", MATER=MATER4))


U4 = STAT_NON_LINE(
    MODELE=MODELE,
    CHAM_MATER=CHMAT4,
    EXCIT=(
        _F(CHARGE=CHAR_UM3),
        _F(CHARGE=DEPL_M5),
        _F(CHARGE=DEPL_M2),
        _F(CHARGE=DEPL_M4, FONC_MULT=COEF2),
    ),
    COMPORTEMENT=_F(RELATION="DRUCK_PRAG_N_A"),
    NEWTON=_F(MATRICE="TANGENTE", REAC_ITER=1),
    ETAT_INIT=_F(SIGM=SIGINIT),
    CONVERGENCE=_F(RESI_GLOB_RELA=1.0e-10, ITER_GLOB_MAXI=50),
    INCREMENT=_F(LIST_INST=TEMPS),
)

U4 = CALC_CHAMP(
    reuse=U4, RESULTAT=U4, CONTRAINTE="SIGM_NOEU", VARI_INTERNE="VARI_NOEU", CRITERES="SIEQ_NOEU"
)

##On compare aux resultats obtenus avec DRUCKER_PRAGER ecrouissage lineaire
TEST_RESU(
    RESU=(
        _F(
            NUME_ORDRE=25,
            RESULTAT=U4,
            NOM_CHAM="SIGM_NOEU",
            GROUP_NO="N4",
            NOM_CMP="SIYY",
            REFERENCE="AUTRE_ASTER",
            VALE_REFE=-4395604.395604386,
            VALE_CALC=-4395604.395604386,
            PRECISION=0.0025,
            GROUP_MA="M1",
        ),
        _F(
            NUME_ORDRE=50,
            RESULTAT=U4,
            NOM_CHAM="SIGM_NOEU",
            GROUP_NO="N4",
            NOM_CMP="SIYY",
            VALE_CALC=-4806973.9530029595,
            GROUP_MA="M1",
        ),
        _F(
            NUME_ORDRE=100,
            RESULTAT=U4,
            NOM_CHAM="SIGM_NOEU",
            GROUP_NO="N4",
            NOM_CMP="SIYY",
            VALE_CALC=-3498656.065152264,
            GROUP_MA="M1",
        ),
        _F(
            NUME_ORDRE=50,
            RESULTAT=U4,
            NOM_CHAM="VARI_NOEU",
            GROUP_NO="N4",
            NOM_CMP="V1",
            VALE_CALC=0.006810527573072276,
        ),
        _F(
            NUME_ORDRE=100,
            RESULTAT=U4,
            NOM_CHAM="VARI_NOEU",
            GROUP_NO="N4",
            NOM_CMP="V1",
            VALE_CALC=0.020408157628502573,
        ),
        _F(
            INST=0.25,
            REFERENCE="ANALYTIQUE",
            RESULTAT=U4,
            NOM_CHAM="DEPL",
            GROUP_NO="N4",
            NOM_CMP="DY",
            VALE_CALC=-0.0040,
            VALE_REFE=-0.0040,
            PRECISION=1.0e-3,
        ),
        _F(
            INST=0.5,
            REFERENCE="ANALYTIQUE",
            RESULTAT=U4,
            NOM_CHAM="DEPL",
            GROUP_NO="N4",
            NOM_CMP="DY",
            VALE_CALC=-0.008000,
            VALE_REFE=-0.008000,
            PRECISION=1.0e-3,
        ),
        _F(
            INST=1.0,
            REFERENCE="ANALYTIQUE",
            RESULTAT=U4,
            NOM_CHAM="DEPL",
            GROUP_NO="N4",
            NOM_CMP="DY",
            VALE_CALC=-0.016,
            VALE_REFE=-0.016,
            PRECISION=1.0e-3,
        ),
    )
)

FIN()
