# coding=utf-8
# --------------------------------------------------------------------
# Copyright (C) 1991 - 2025 - EDF R&D - www.code-aster.org
# This file is part of code_aster.
#
# code_aster is free software: you can redistribute it and/or modify
# it under the terms of the GNU General Public License as published by
# the Free Software Foundation, either version 3 of the License, or
# (at your option) any later version.
#
# code_aster is distributed in the hope that it will be useful,
# but WITHOUT ANY WARRANTY; without even the implied warranty of
# MERCHANTABILITY or FITNESS FOR A PARTICULAR PURPOSE.  See the
# GNU General Public License for more details.
#
# You should have received a copy of the GNU General Public License
# along with code_aster.  If not, see <http://www.gnu.org/licenses/>.
# --------------------------------------------------------------------

#   Calcul realise avec un Stat_non_line
#   Lecture d'un champ de vitesse de vent
#   Prise en compte d'une fonction decrivant la force repartie
#
# VALIDATION PAR REFERENCE AU CALCUL ANALYTIQUE
#
DEBUT(CODE="OUI", ERREUR=_F(ALARME="EXCEPTION"), DEBUG=_F(SDVERI="OUI"))

# Maillage supportant les champs de vent

MAVENT = LIRE_MAILLAGE(FORMAT="IDEAS", UNITE=30)

# Lecture du fichier de vitesse de vent
VVENT = LIRE_RESU(
    TITRE="VITESSE DE VENT",
    MAILLAGE=MAVENT,
    FORMAT="IDEAS",
    TYPE_RESU="EVOL_CHAR",
    NOM_CHAM=("VITE_VENT"),
    FORMAT_IDEAS=_F(
        POSI_ORDRE=(7, 4),
        NOM_CMP=("DX", "DY", "DZ"),
        POSI_INST=(8, 1),
        NOM_CHAM="VITE_VENT",
        NUME_DATASET=55,
        RECORD_6=(1, 4, 2, 0, 2, 3),
    ),
    TOUT_ORDRE="OUI",
    UNITE=38,
)

# Maillage supportant la structure
MA = LIRE_MAILLAGE(FORMAT="ASTER", UNITE=20)

# Modele contenant la structure
MO = AFFE_MODELE(
    MAILLAGE=MA,
    AFFE=(
        _F(GROUP_MA=("BARR1"), PHENOMENE="MECANIQUE", MODELISATION="CABLE"),
        _F(GROUP_MA=("RESS1", "RESS2"), PHENOMENE="MECANIQUE", MODELISATION="DIS_T"),
    ),
)

FCXV = DEFI_FONCTION(
    NOM_PARA="VITE", VALE=(0.0, 0.0, 10.0, 10.0), PROL_GAUCHE="LINEAIRE", PROL_DROITE="LINEAIRE"
)

CARELEM = AFFE_CARA_ELEM(
    MODELE=MO,
    CABLE=_F(GROUP_MA=("BARR1"), SECTION=0.5, N_INIT=0, FCX=FCXV),
    DISCRET=(
        _F(GROUP_MA=("RESS1"), CARA="K_T_D_L", VALE=(10.0, 20.0, 100000.0)),
        _F(GROUP_MA=("RESS2"), CARA="K_T_D_L", VALE=(25.0, 30.0, 100000.0)),
    ),
)

ACIER = DEFI_MATERIAU(ELAS=_F(RHO=1000.0, E=2.0e08, NU=0.3, ALPHA=2.3e-05), CABLE=_F(EC_SUR_E=0))

CHMAT = AFFE_MATERIAU(MAILLAGE=MA, AFFE=_F(MATER=ACIER, TOUT="OUI"))

LIMIT = AFFE_CHAR_MECA(
    MODELE=MO,
    DDL_IMPO=(
        _F(GROUP_NO=("PT1", "PT2"), DZ=0.0, DX=0.0, DY=0.0),
        _F(GROUP_NO=("PTR1", "PTR2"), DZ=0.0),
    ),
)

TEMPS = DEFI_LIST_REEL(VALE=(0.0, 1.0, 1.05, 1.1, 2.0))

FVENTCX = AFFE_CHAR_MECA(MODELE=MO, EVOL_CHAR=VVENT)

RSTAT1 = STAT_NON_LINE(
    MODELE=MO,
    CARA_ELEM=CARELEM,
    CHAM_MATER=CHMAT,
    EXCIT=(_F(CHARGE=LIMIT), _F(CHARGE=FVENTCX, TYPE_CHARGE="SUIV")),
    INCREMENT=_F(NUME_INST_FIN=4, LIST_INST=TEMPS),
    COMPORTEMENT=_F(GROUP_MA=("BARRE"), RELATION="CABLE", DEFORMATION="GROT_GDEP"),
    CONVERGENCE=_F(ITER_GLOB_MAXI=20, RESI_GLOB_RELA=1.0e-08),
    NEWTON=_F(REAC_ITER=1),
    SOLVEUR=_F(STOP_SINGULIER="NON"),
)

RSTAT1 = CALC_CHAMP(
    reuse=RSTAT1, RESULTAT=RSTAT1, TOUT_ORDRE="OUI", CONTRAINTE=("SIEF_ELNO"), FORCE=("REAC_NODA")
)

TEST_RESU(
    RESU=(
        _F(
            NUME_ORDRE=1,
            GROUP_NO="PTR1",
            REFERENCE="ANALYTIQUE",
            RESULTAT=RSTAT1,
            NOM_CHAM="DEPL",
            NOM_CMP="DX",
            VALE_CALC=-0.2091751009048851,
            VALE_REFE=-0.2091751,
        ),
        _F(
            NUME_ORDRE=1,
            GROUP_NO="PTR1",
            REFERENCE="ANALYTIQUE",
            RESULTAT=RSTAT1,
            NOM_CHAM="DEPL",
            NOM_CMP="DY",
            VALE_CALC=0.32763208178092473,
            VALE_REFE=0.32763209999999998,
        ),
        _F(
            NUME_ORDRE=1,
            GROUP_NO="PTR2",
            REFERENCE="ANALYTIQUE",
            RESULTAT=RSTAT1,
            NOM_CHAM="DEPL",
            NOM_CMP="DX",
            VALE_CALC=-0.14181885556511464,
            VALE_REFE=-0.1418189,
        ),
        _F(
            NUME_ORDRE=1,
            GROUP_NO="PTR2",
            REFERENCE="ANALYTIQUE",
            RESULTAT=RSTAT1,
            NOM_CHAM="DEPL",
            NOM_CMP="DY",
            VALE_CALC=0.19647495545667723,
            VALE_REFE=0.19647490000000001,
        ),
        _F(
            NUME_ORDRE=2,
            GROUP_NO="PTR1",
            REFERENCE="ANALYTIQUE",
            RESULTAT=RSTAT1,
            NOM_CHAM="DEPL",
            NOM_CMP="DX",
            VALE_CALC=-0.2885084414663753,
            VALE_REFE=-0.2885084,
        ),
        _F(
            NUME_ORDRE=2,
            GROUP_NO="PTR1",
            REFERENCE="ANALYTIQUE",
            RESULTAT=RSTAT1,
            NOM_CHAM="DEPL",
            NOM_CMP="DY",
            VALE_CALC=0.5049895643037524,
            VALE_REFE=0.50498960000000004,
        ),
        _F(
            NUME_ORDRE=2,
            GROUP_NO="PTR2",
            REFERENCE="ANALYTIQUE",
            RESULTAT=RSTAT1,
            NOM_CHAM="DEPL",
            NOM_CMP="DX",
            VALE_CALC=-0.19419542266511516,
            VALE_REFE=-0.19419539999999999,
        ),
        _F(
            NUME_ORDRE=2,
            GROUP_NO="PTR2",
            REFERENCE="ANALYTIQUE",
            RESULTAT=RSTAT1,
            NOM_CHAM="DEPL",
            NOM_CMP="DY",
            VALE_CALC=0.31048274639631507,
            VALE_REFE=0.3104827,
        ),
        _F(
            NUME_ORDRE=4,
            GROUP_NO="PTR1",
            REFERENCE="ANALYTIQUE",
            RESULTAT=RSTAT1,
            NOM_CHAM="DEPL",
            NOM_CMP="DX",
            VALE_CALC=-0.35018530601530906,
            VALE_REFE=-0.35018529999999998,
        ),
        _F(
            NUME_ORDRE=4,
            GROUP_NO="PTR1",
            REFERENCE="ANALYTIQUE",
            RESULTAT=RSTAT1,
            NOM_CHAM="DEPL",
            NOM_CMP="DY",
            VALE_CALC=0.6890068236906205,
            VALE_REFE=0.68900680000000003,
        ),
        _F(
            NUME_ORDRE=4,
            GROUP_NO="PTR2",
            REFERENCE="ANALYTIQUE",
            RESULTAT=RSTAT1,
            NOM_CHAM="DEPL",
            NOM_CMP="DX",
            VALE_CALC=-0.2327077680454364,
            VALE_REFE=-0.23270779999999999,
        ),
        _F(
            NUME_ORDRE=4,
            GROUP_NO="PTR2",
            REFERENCE="ANALYTIQUE",
            RESULTAT=RSTAT1,
            NOM_CHAM="DEPL",
            NOM_CMP="DY",
            VALE_CALC=0.43244726110200077,
            VALE_REFE=0.43244729999999998,
        ),
    )
)

FIN()
