# coding=utf-8
# --------------------------------------------------------------------
# Copyright (C) 1991 - 2025 - EDF R&D - www.code-aster.org
# This file is part of code_aster.
#
# code_aster is free software: you can redistribute it and/or modify
# it under the terms of the GNU General Public License as published by
# the Free Software Foundation, either version 3 of the License, or
# (at your option) any later version.
#
# code_aster is distributed in the hope that it will be useful,
# but WITHOUT ANY WARRANTY; without even the implied warranty of
# MERCHANTABILITY or FITNESS FOR A PARTICULAR PURPOSE.  See the
# GNU General Public License for more details.
#
# You should have received a copy of the GNU General Public License
# along with code_aster.  If not, see <http://www.gnu.org/licenses/>.
# --------------------------------------------------------------------

# person_in_charge: ayaovi-dzifa.kudawoo at edf.fr
# DATE   : 11/09/2000
# AUTEUR : F. LEBOUVIER (DELTACAD)
#   TUYAU COUDE MINCE SOUMIS A UNE FLEXION DANS SON PLAN ET A UNE
#    PRESSION INTERNE AVEC EFFET DE FOND
#   MODELISATION AVEC DES ELEMENTS 'TUYAU' (SEG3; 3 MODES DE FOURIER)
# ---------------------------------------------------------------------

DEBUT(CODE="OUI", ERREUR=_F(ALARME="EXCEPTION"))

MA = LIRE_MAILLAGE(FORMAT="MED")

MA = DEFI_GROUP(
    reuse=MA, MAILLAGE=MA, CREA_GROUP_NO=(_F(GROUP_NO="NO1", NOM="A"), _F(GROUP_NO="NO4", NOM="D"))
)

#

MO = AFFE_MODELE(MAILLAGE=MA, AFFE=_F(TOUT="OUI", PHENOMENE="MECANIQUE", MODELISATION="TUYAU_3M"))

#
# ---------------------------------------------------------------------
#                     CARACTERISTIQUES ELEMENTAIRES
# ---------------------------------------------------------------------

CAREL = AFFE_CARA_ELEM(
    MODELE=MO,
    POUTRE=_F(GROUP_MA="G_MAIL", SECTION="CERCLE", CARA=("R", "EP"), VALE=(0.2035, 0.0104)),
    ORIENTATION=_F(GROUP_NO="A", CARA="GENE_TUYAU", VALE=(0.0, 0.0, 1.0)),
)

#
# ---------------------------------------------------------------------
#                     CARACTERISTIQUES MATERIAUX
# ---------------------------------------------------------------------

SI = DEFI_FONCTION(
    NOM_PARA="EPSI",
    VALE=(
        0.001404,
        2.719e08,
        0.006134,
        3.459e08,
        0.014044,
        3.789e08,
        0.029764,
        4.036e08,
        0.050504,
        4.242e08,
        0.106404,
        5.276e08,
    ),
    PROL_DROITE="LINEAIRE",
    PROL_GAUCHE="LINEAIRE",
)

#

MAT = DEFI_MATERIAU(ELAS=_F(E=1.9374e11, NU=0.2642), TRACTION=_F(SIGM=SI))

#

CHMAT = AFFE_MATERIAU(MAILLAGE=MA, AFFE=_F(TOUT="OUI", MATER=MAT))

#
# ---------------------------------------------------------------------
#                     CHARGEMENTS
# ---------------------------------------------------------------------

F_PRESS = DEFI_FONCTION(
    NOM_PARA="INST",
    VALE=(0.0, 0.0, 10.0, 1.0, 20.0, 1.0),
    PROL_DROITE="CONSTANT",
    PROL_GAUCHE="EXCLU",
)

#

F_MOME = DEFI_FONCTION(
    NOM_PARA="INST",
    VALE=(0.0, 0.0, 10.0, 0.0, 20.0, 1.0),
    PROL_DROITE="CONSTANT",
    PROL_GAUCHE="EXCLU",
)

#

CHAR0 = AFFE_CHAR_MECA(
    MODELE=MO,
    DDL_IMPO=(
        _F(GROUP_NO="A", BLOCAGE=("DEPLACEMENT", "ROTATION", "TUYAU_FOURIER")),
        _F(GROUP_NO="D", BLOCAGE=("TUYAU_FOURIER")),
    ),
)

#

PRESS = AFFE_CHAR_MECA(
    MODELE=MO, FORCE_NODALE=_F(GROUP_NO="D", FX=4.0414e5), FORCE_TUYAU=_F(TOUT="OUI", PRES=1.725e06)
)

FPRESX = DEFI_FONCTION(
    NOM_PARA="INST",
    VALE=(0.0, 1.725e06, 10.0, 1.725e06),
    PROL_DROITE="CONSTANT",
    PROL_GAUCHE="CONSTANT",
)

PRESFX = AFFE_CHAR_MECA_F(MODELE=MO, FORCE_TUYAU=_F(TOUT="OUI", PRES=FPRESX))
#

MOME = AFFE_CHAR_MECA(MODELE=MO, FORCE_NODALE=_F(GROUP_NO="D", MZ=2.534e05))

#
# ---------------------------------------------------------------------
#                        RESOLUTION
# ---------------------------------------------------------------------

LIST_INS = DEFI_LIST_REEL(
    DEBUT=0.0, INTERVALLE=(_F(JUSQU_A=10.0, NOMBRE=2), _F(JUSQU_A=20.0, NOMBRE=20))
)

#
# ETAPE 1 : PRESSION IMPOSEE

RESUL = STAT_NON_LINE(
    MODELE=MO,
    CHAM_MATER=CHMAT,
    CARA_ELEM=CAREL,
    EXCIT=(
        _F(CHARGE=CHAR0),
        _F(CHARGE=PRESS, FONC_MULT=F_PRESS),
        _F(CHARGE=PRESFX, FONC_MULT=F_PRESS),
    ),
    COMPORTEMENT=_F(RELATION="VMIS_ISOT_TRAC", ITER_INTE_MAXI=30),
    INCREMENT=_F(LIST_INST=LIST_INS, NUME_INST_FIN=2),
    NEWTON=_F(MATRICE="TANGENTE", REAC_ITER=1),
    CONVERGENCE=_F(RESI_GLOB_RELA=1.0e-6, ITER_GLOB_MAXI=10),
)

#
# ETAPE 2 : ROTATION IMPOSEE (MOMENT)

RESUL = STAT_NON_LINE(
    reuse=RESUL,
    MODELE=MO,
    CHAM_MATER=CHMAT,
    CARA_ELEM=CAREL,
    EXCIT=(
        _F(CHARGE=CHAR0),
        _F(CHARGE=PRESS, FONC_MULT=F_PRESS),
        _F(CHARGE=PRESFX, FONC_MULT=F_PRESS),
        _F(CHARGE=MOME, TYPE_CHARGE="FIXE_PILO"),
    ),
    COMPORTEMENT=_F(RELATION="VMIS_ISOT_TRAC", ITER_INTE_MAXI=30),
    ETAT_INIT=_F(EVOL_NOLI=RESUL),
    INCREMENT=_F(LIST_INST=LIST_INS, NUME_INST_INIT=2),
    NEWTON=_F(MATRICE="TANGENTE", REAC_ITER=1),
    PILOTAGE=_F(TYPE="DDL_IMPO", COEF_MULT=25.0, GROUP_NO="D", NOM_CMP="DRZ"),
    CONVERGENCE=_F(RESI_GLOB_RELA=1.0e-6, ITER_GLOB_MAXI=10),
)

TAB_DRZ = POST_RELEVE_T(
    ACTION=_F(
        OPERATION="EXTRACTION",
        INTITULE="TB_DRZ",
        RESULTAT=RESUL,
        NOM_CHAM="DEPL",
        TOUT_ORDRE="OUI",
        GROUP_NO="D",
        NOM_CMP="DRZ",
    )
)

IMPR_TABLE(TABLE=TAB_DRZ)

#
# ---------------------------------------------------------------------
#                        VERIFICATION DES RESULTATS
# ---------------------------------------------------------------------

TEST_RESU(
    RESU=(
        _F(
            NUME_ORDRE=17,
            PARA="ETA_PILOTAGE",
            RESULTAT=RESUL,
            VALE_CALC=1.1328896759582223,
            VALE_REFE=1.0,
            REFERENCE="SOURCE_EXTERNE",
            PRECISION=0.202,
        ),
        _F(
            NUME_ORDRE=18,
            PARA="ETA_PILOTAGE",
            RESULTAT=RESUL,
            VALE_CALC=1.1420566983850278,
            VALE_REFE=1.0,
            REFERENCE="SOURCE_EXTERNE",
            PRECISION=0.202,
        ),
        _F(
            NUME_ORDRE=19,
            PARA="ETA_PILOTAGE",
            RESULTAT=RESUL,
            VALE_CALC=1.1505034928026092,
            VALE_REFE=1.0,
            REFERENCE="SOURCE_EXTERNE",
            PRECISION=0.202,
        ),
        _F(
            NUME_ORDRE=20,
            PARA="ETA_PILOTAGE",
            RESULTAT=RESUL,
            VALE_CALC=1.1583854858417306,
            VALE_REFE=1.0,
            REFERENCE="SOURCE_EXTERNE",
            PRECISION=0.202,
        ),
        _F(
            NUME_ORDRE=21,
            PARA="ETA_PILOTAGE",
            RESULTAT=RESUL,
            VALE_CALC=1.1657877284001164,
            VALE_REFE=1.0,
            REFERENCE="SOURCE_EXTERNE",
            PRECISION=0.202,
        ),
        _F(
            NUME_ORDRE=22,
            PARA="ETA_PILOTAGE",
            RESULTAT=RESUL,
            VALE_CALC=1.1727687257770998,
            VALE_REFE=1.0,
            REFERENCE="SOURCE_EXTERNE",
            PRECISION=0.202,
        ),
        _F(NUME_ORDRE=22, PARA="ETA_PILOTAGE", RESULTAT=RESUL, VALE_CALC=1.1727687257770998),
    )
)

# =================================================
# Test sur SIEF_ELGA
# =================================================

RESUL = CALC_CHAMP(reuse=RESUL, RESULTAT=RESUL, CONTRAINTE="SIGM_ELNO")

coor3d = CALC_CHAM_ELEM(MODELE=MO, OPTION="COOR_ELGA", CARA_ELEM=CAREL)


VOLUM1 = POST_ELEM(
    RESULTAT=RESUL,
    VOLUMOGRAMME=_F(
        NOM_CMP="SIXY",
        CARA_ELEM=CAREL,
        TOUT="OUI",
        NOM_CHAM="SIEF_ELGA",
        NORME="RELATIF",
        BORNES=(-1.91865e08, 1.91865e08),
        NB_INTERV=5,
    ),
    MODELE=MO,
)

IMPR_TABLE(TABLE=VOLUM1)

TEST_TABLE(
    VALE_CALC=2.098879090789026,
    NOM_PARA="DISTRIBUTION",
    TABLE=VOLUM1,
    FILTRE=(
        _F(NOM_PARA="NOM_CMP", VALE_K="SIXY"),
        _F(NOM_PARA="NUME_ORDRE", VALE_I=22),
        _F(NOM_PARA="INTERVALLE", VALE_I=1),
    ),
)

TEST_TABLE(
    VALE_CALC=15.653930443111072,
    NOM_PARA="DISTRIBUTION",
    TABLE=VOLUM1,
    FILTRE=(
        _F(NOM_PARA="NOM_CMP", VALE_K="SIXY"),
        _F(NOM_PARA="NUME_ORDRE", VALE_I=22),
        _F(NOM_PARA="INTERVALLE", VALE_I=2),
    ),
)

# =================================================
# Test sur SIGM_ELNO
# =================================================

VOLUM2 = POST_ELEM(
    RESULTAT=RESUL,
    VOLUMOGRAMME=_F(
        NOM_CMP="SIXY",
        CARA_ELEM=CAREL,
        TOUT="OUI",
        NOM_CHAM="SIGM_ELNO",
        NORME="ABSOLU",
        NB_INTERV=7,
    ),
    MODELE=MO,
)

TEST_TABLE(
    VALE_CALC=0.006844175649570466,
    NOM_PARA="DISTRIBUTION",
    TABLE=VOLUM2,
    FILTRE=(
        _F(NOM_PARA="NOM_CMP", VALE_K="SIXY"),
        _F(NOM_PARA="NUME_ORDRE", VALE_I=22),
        _F(NOM_PARA="INTERVALLE", VALE_I=3),
    ),
)

IMPR_TABLE(TABLE=VOLUM2)

# =================================================
#
# Test VOLUME
#
# =================================================

VOLUM3 = POST_ELEM(
    RESULTAT=RESUL,
    MODELE=MO,
    VOLUMOGRAMME=_F(
        NOM_CMP="SIXX",
        CARA_ELEM=CAREL,
        TOUT="OUI",
        NOM_CHAM="SIGM_ELNO",
        NORME="ABSOLU",
        NB_INTERV=5,
    ),
)

IMPR_TABLE(TABLE=VOLUM3)
TEST_TABLE(
    TABLE=VOLUM3,
    NOM_PARA="DISTRIBUTION",
    TYPE_TEST="SOMM_ABS",
    VALE_CALC=0.04403346197909556,
    FILTRE=_F(NOM_PARA="NUME_ORDRE", VALE_I=22),
),

FIN()

#
