# coding=utf-8
# --------------------------------------------------------------------
# Copyright (C) 1991 - 2025 - EDF R&D - www.code-aster.org
# This file is part of code_aster.
#
# code_aster is free software: you can redistribute it and/or modify
# it under the terms of the GNU General Public License as published by
# the Free Software Foundation, either version 3 of the License, or
# (at your option) any later version.
#
# code_aster is distributed in the hope that it will be useful,
# but WITHOUT ANY WARRANTY; without even the implied warranty of
# MERCHANTABILITY or FITNESS FOR A PARTICULAR PURPOSE.  See the
# GNU General Public License for more details.
#
# You should have received a copy of the GNU General Public License
# along with code_aster.  If not, see <http://www.gnu.org/licenses/>.
# --------------------------------------------------------------------

#
DEBUT(CODE="OUI", DEBUG=_F(SDVERI="OUI"))

MA = LIRE_MAILLAGE(FORMAT="ASTER")

MO = AFFE_MODELE(
    MAILLAGE=MA,
    AFFE=_F(GROUP_MA="D1", PHENOMENE="MECANIQUE", MODELISATION="DIS_TR"),
    DISTRIBUTION=_F(METHODE="CENTRALISE"),
)

F1 = DEFI_FONCTION(
    NOM_PARA="INST",
    VALE=(0.0, 0.0, 4.0, 4.0, 6.0, 2.0, 10.0, 6.0, 12.0, 4.0),
    PROL_DROITE="LINEAIRE",
    PROL_GAUCHE="LINEAIRE",
)

LINST = DEFI_LIST_REEL(DEBUT=0.0, INTERVALLE=_F(JUSQU_A=12.0, PAS=1.0))

MAT02 = DEFI_MATERIAU(ARME=_F(KYE=1.67e4, DLE=0.048, KYP=2.9e3, DLP=0.7, KYG=1.0e6))

CHMAT = AFFE_MATERIAU(MAILLAGE=MA, AFFE=_F(GROUP_MA="D1", MATER=MAT02))

CAREL = AFFE_CARA_ELEM(
    MODELE=MO,
    DISCRET=_F(GROUP_MA="D1", CARA="K_TR_D_L", VALE=(1.0e6, 1.0e6, 1.0e6, 1.0e9, 1.0e9, 1.0e9)),
    ORIENTATION=_F(GROUP_MA="D1", CARA="ANGL_NAUT", VALE=(0.0, 0.0, 0.0)),
)

CH1 = AFFE_CHAR_MECA(
    MODELE=MO,
    DDL_IMPO=_F(GROUP_NO="N2", DX=0.0, DY=0.0, DZ=0.0, DRX=0.0, DRY=0.0, DRZ=0.0),
    FORCE_NODALE=_F(GROUP_NO="N3", FX=0.0, FY=500.0, FZ=0.0, MX=0.0, MY=0.0, MZ=0.0),
)

STATNL = STAT_NON_LINE(
    SOLVEUR=_F(METHODE="MUMPS"),
    MODELE=MO,
    CHAM_MATER=CHMAT,
    CARA_ELEM=CAREL,
    EXCIT=_F(CHARGE=CH1, FONC_MULT=F1),
    COMPORTEMENT=_F(RELATION="ARME", GROUP_MA="D1"),
    INCREMENT=_F(LIST_INST=LINST, NUME_INST_FIN=12),
    CONVERGENCE=_F(ITER_GLOB_MAXI=40),
    NEWTON=_F(MATRICE="TANGENTE", REAC_ITER=1),
)

STATNL = CALC_CHAMP(
    reuse=STATNL, CONTRAINTE=("SIEF_ELNO"), VARI_INTERNE=("VARI_ELNO"), RESULTAT=STATNL
)


#
TEST_RESU(
    RESU=(
        _F(
            NUME_ORDRE=2,
            RESULTAT=STATNL,
            NOM_CHAM="DEPL",
            GROUP_NO="N3",
            NOM_CMP="DY",
            VALE_CALC=0.11641379310345,
            VALE_REFE=0.116,
            REFERENCE="ANALYTIQUE",
            PRECISION=4.0e-3,
        ),
        _F(
            NUME_ORDRE=8,
            RESULTAT=STATNL,
            NOM_CHAM="DEPL",
            GROUP_NO="N3",
            NOM_CMP="DY",
            VALE_CALC=0.46124137931034,
            VALE_REFE=0.461,
            REFERENCE="ANALYTIQUE",
            PRECISION=1.0e-3,
        ),
        _F(
            NUME_ORDRE=10,
            RESULTAT=STATNL,
            NOM_CHAM="DEPL",
            GROUP_NO="N3",
            NOM_CMP="DY",
            VALE_CALC=0.70030760000000,
            VALE_REFE=0.700,
            REFERENCE="ANALYTIQUE",
            PRECISION=1.0e-3,
        ),
        _F(
            NUME_ORDRE=2,
            RESULTAT=STATNL,
            NOM_CHAM="VARI_ELNO",
            GROUP_NO="N3",
            NOM_CMP="V1",
            VALE_CALC=0.068413793103448,
            VALE_REFE=0.0684,
            REFERENCE="ANALYTIQUE",
            PRECISION=1.0e-3,
            GROUP_MA="D1",
        ),
        _F(
            NUME_ORDRE=8,
            RESULTAT=STATNL,
            NOM_CHAM="VARI_ELNO",
            GROUP_NO="N3",
            NOM_CMP="V1",
            VALE_CALC=0.41324137931034,
            VALE_REFE=0.413,
            REFERENCE="ANALYTIQUE",
            PRECISION=1.0e-3,
            GROUP_MA="D1",
        ),
        _F(
            NUME_ORDRE=10,
            RESULTAT=STATNL,
            NOM_CHAM="VARI_ELNO",
            GROUP_NO="N3",
            NOM_CMP="V1",
            VALE_CALC=0.652,
            VALE_REFE=0.652,
            REFERENCE="ANALYTIQUE",
            PRECISION=1.0e-3,
            GROUP_MA="D1",
        ),
    )
)

FIN()
#
