# coding=utf-8
# --------------------------------------------------------------------
# Copyright (C) 1991 - 2025 - EDF R&D - www.code-aster.org
# This file is part of code_aster.
#
# code_aster is free software: you can redistribute it and/or modify
# it under the terms of the GNU General Public License as published by
# the Free Software Foundation, either version 3 of the License, or
# (at your option) any later version.
#
# code_aster is distributed in the hope that it will be useful,
# but WITHOUT ANY WARRANTY; without even the implied warranty of
# MERCHANTABILITY or FITNESS FOR A PARTICULAR PURPOSE.  See the
# GNU General Public License for more details.
#
# You should have received a copy of the GNU General Public License
# along with code_aster.  If not, see <http://www.gnu.org/licenses/>.
# --------------------------------------------------------------------

#
DEBUT(CODE="OUI", DEBUG=_F(SDVERI="OUI"))

MA = LIRE_MAILLAGE(FORMAT="ASTER")

MO = AFFE_MODELE(MAILLAGE=MA, AFFE=_F(GROUP_MA="D1", PHENOMENE="MECANIQUE", MODELISATION="DIS_TR"))

F1 = DEFI_FONCTION(
    NOM_PARA="INST",
    VALE=(
        0.0,
        0.0,
        1.0,
        6.0,
        2.0,
        7.0,
        3.0,
        17.0,
        4.0,
        40.0,
        6.0,
        20.0,
        8.0,
        42.0,
        10.0,
        -0.1,
        11.0,
        -7.0,
        12.0,
        -17.0,
    ),
    PROL_DROITE="LINEAIRE",
    PROL_GAUCHE="LINEAIRE",
)

LINST = DEFI_LIST_REEL(DEBUT=0.0, INTERVALLE=_F(JUSQU_A=12.0, PAS=1.0))

MAT02 = DEFI_MATERIAU(
    ASSE_CORN=_F(
        NU_1=10050.0,
        MU_1=150000.0,
        DXU_1=1.0,
        DRYU_1=67.0e-3,
        C_1=0.95,
        NU_2=50000.0,
        MU_2=750000.0,
        DXU_2=10.0,
        DRYU_2=0.01,
        C_2=0.95,
        KY=1.0e6,
        KZ=1.0e6,
        KRX=1.0e9,
        KRZ=1.0e9,
    )
)

CHMAT = AFFE_MATERIAU(MAILLAGE=MA, AFFE=_F(GROUP_MA="D1", MATER=MAT02))

CAREL = AFFE_CARA_ELEM(
    MODELE=MO,
    DISCRET=_F(GROUP_MA="D1", CARA="K_TR_D_L", VALE=(1.0e6, 1.0e6, 1.0e6, 1.0e9, 1.0e9, 1.0e9)),
    ORIENTATION=_F(GROUP_MA="D1", CARA="ANGL_NAUT", VALE=(0.0, 0.0, 0.0)),
)

CH1 = AFFE_CHAR_MECA(
    MODELE=MO,
    DDL_IMPO=_F(GROUP_NO="N2", DX=0.0, DY=0.0, DZ=0.0, DRX=0.0, DRY=0.0, DRZ=0.0),
    FORCE_NODALE=_F(GROUP_NO="N3", FX=1000.0, FY=0.0, FZ=0.0, MX=0.0, MY=3000.0, MZ=0.0),
)

STATNL = STAT_NON_LINE(
    MODELE=MO,
    CHAM_MATER=CHMAT,
    CARA_ELEM=CAREL,
    EXCIT=_F(CHARGE=CH1, FONC_MULT=F1),
    COMPORTEMENT=_F(RELATION="ASSE_CORN", GROUP_MA="D1"),
    INCREMENT=_F(LIST_INST=LINST, NUME_INST_FIN=12),
    CONVERGENCE=_F(ITER_GLOB_MAXI=40),
    NEWTON=_F(MATRICE="TANGENTE", REAC_ITER=1),
)

STATNL = CALC_CHAMP(
    reuse=STATNL, CONTRAINTE=("SIEF_ELNO"), VARI_INTERNE=("VARI_ELNO"), RESULTAT=STATNL
)


#
IMPR_RESU(FORMAT="RESULTAT", RESU=_F(RESULTAT=STATNL))

TEST_RESU(
    RESU=(
        _F(
            NUME_ORDRE=2,
            RESULTAT=STATNL,
            NOM_CHAM="DEPL",
            GROUP_NO="N3",
            NOM_CMP="DX",
            VALE_CALC=0.094680537691726,
            VALE_REFE=0.09468,
            REFERENCE="ANALYTIQUE",
            PRECISION=1.0e-3,
        ),
        _F(
            NUME_ORDRE=2,
            RESULTAT=STATNL,
            NOM_CHAM="DEPL",
            GROUP_NO="N3",
            NOM_CMP="DRY",
            VALE_CALC=1.2750628010945e-03,
            VALE_REFE=1.275e-3,
            REFERENCE="ANALYTIQUE",
            PRECISION=1.0e-3,
        ),
        _F(
            NUME_ORDRE=8,
            RESULTAT=STATNL,
            NOM_CHAM="DEPL",
            GROUP_NO="N3",
            NOM_CMP="DX",
            VALE_CALC=3.7366291892041,
            VALE_REFE=3.7366,
            REFERENCE="ANALYTIQUE",
            PRECISION=1.0e-3,
        ),
        _F(
            NUME_ORDRE=8,
            RESULTAT=STATNL,
            NOM_CHAM="DEPL",
            GROUP_NO="N3",
            NOM_CMP="DRY",
            VALE_CALC=0.013754182332048,
            VALE_REFE=0.013754,
            REFERENCE="ANALYTIQUE",
            PRECISION=1.0e-3,
        ),
        _F(
            NUME_ORDRE=12,
            RESULTAT=STATNL,
            NOM_CHAM="DEPL",
            GROUP_NO="N3",
            NOM_CMP="DX",
            VALE_CALC=2.6798917202552,
            VALE_REFE=2.6799,
            REFERENCE="ANALYTIQUE",
            PRECISION=1.0e-3,
        ),
        _F(
            NUME_ORDRE=12,
            RESULTAT=STATNL,
            NOM_CHAM="DEPL",
            GROUP_NO="N3",
            NOM_CMP="DRY",
            VALE_CALC=5.3597834405102e-04,
            VALE_REFE=5.3598e-4,
            REFERENCE="ANALYTIQUE",
            PRECISION=1.0e-3,
        ),
        _F(
            NUME_ORDRE=2,
            RESULTAT=STATNL,
            NOM_CHAM="VARI_ELNO",
            GROUP_NO="N3",
            NOM_CMP="V1",
            VALE_CALC=0.096574194857577,
            VALE_REFE=0.096574,
            REFERENCE="ANALYTIQUE",
            PRECISION=1.0e-3,
            GROUP_MA="D1",
        ),
        _F(
            NUME_ORDRE=3,
            POINT=2,
            RESULTAT=STATNL,
            NOM_CHAM="VARI_ELGA",
            NOM_CMP="V1",
            VALE_CALC=1.0741696740416,
            VALE_REFE=1.07417,
            REFERENCE="ANALYTIQUE",
            PRECISION=1.0e-3,
            GROUP_MA="D1",
        ),
        _F(
            NUME_ORDRE=11,
            RESULTAT=STATNL,
            NOM_CHAM="VARI_ELNO",
            GROUP_NO="N3",
            NOM_CMP="V1",
            VALE_CALC=0.096574194857577,
            VALE_REFE=0.096574,
            REFERENCE="ANALYTIQUE",
            PRECISION=1.0e-3,
            GROUP_MA="D1",
        ),
        _F(
            NUME_ORDRE=12,
            POINT=2,
            RESULTAT=STATNL,
            NOM_CHAM="VARI_ELGA",
            NOM_CMP="V1",
            VALE_CALC=1.0741696740416,
            VALE_REFE=1.07417,
            REFERENCE="ANALYTIQUE",
            PRECISION=1.0e-3,
            GROUP_MA="D1",
        ),
    )
)

FIN()
#
