# coding=utf-8
# --------------------------------------------------------------------
# Copyright (C) 1991 - 2025 - EDF R&D - www.code-aster.org
# This file is part of code_aster.
#
# code_aster is free software: you can redistribute it and/or modify
# it under the terms of the GNU General Public License as published by
# the Free Software Foundation, either version 3 of the License, or
# (at your option) any later version.
#
# code_aster is distributed in the hope that it will be useful,
# but WITHOUT ANY WARRANTY; without even the implied warranty of
# MERCHANTABILITY or FITNESS FOR A PARTICULAR PURPOSE.  See the
# GNU General Public License for more details.
#
# You should have received a copy of the GNU General Public License
# along with code_aster.  If not, see <http://www.gnu.org/licenses/>.
# --------------------------------------------------------------------

#

DEBUT(CODE="OUI", ERREUR=_F(ALARME="EXCEPTION"), DEBUG=_F(SDVERI="OUI"))

#

MAILLAGE = LIRE_MAILLAGE(FORMAT="MED", UNITE=20)

#

MODELE = AFFE_MODELE(
    MAILLAGE=MAILLAGE,
    AFFE=(
        _F(
            GROUP_MA=("POUTRE_1", "POUTRE_2", "POUTRE_3"), PHENOMENE="MECANIQUE", MODELISATION="DKT"
        ),
        _F(GROUP_MA="CABLE001", PHENOMENE="MECANIQUE", MODELISATION="BARRE"),
    ),
)

#

CARAELEM = AFFE_CARA_ELEM(
    MODELE=MODELE,
    COQUE=_F(GROUP_MA=("POUTRE_1", "POUTRE_2", "POUTRE_3"), COQUE_NCOU=5, EPAIS=2.0e-1),
    BARRE=_F(GROUP_MA="CABLE001", SECTION="GENERALE", CARA=("A",), VALE=(1.5e-4,)),
)

#

# DEFINITION DE MATERIAUX QUASI IDENTIQUES POUR VERIFIER L ACCEPTATION
# D UNE LISTE DE MAILLE CONTENANT DIFFERENT MATERIAUX PAR DEFI_CABLE_BP

BETON_1 = DEFI_MATERIAU(ELAS=_F(E=3.0e10, NU=0.0), BPEL_BETON=_F())

BETON_2 = DEFI_MATERIAU(ELAS=_F(E=2.999999999e10, NU=0.0), BPEL_BETON=_F())

BETON_3 = DEFI_MATERIAU(ELAS=_F(E=3.0e10, NU=0.0), BPEL_BETON=_F())
#

ACIER = DEFI_MATERIAU(
    ELAS=_F(E=2.1e11, NU=0.0), BPEL_ACIER=_F(F_PRG=1.77e9, FROT_COURB=0.0, FROT_LINE=0.0)
)

#

CHMATER = AFFE_MATERIAU(
    MAILLAGE=MAILLAGE,
    AFFE=(
        _F(GROUP_MA="POUTRE_1", MATER=BETON_1),
        _F(GROUP_MA="POUTRE_2", MATER=BETON_2),
        _F(GROUP_MA="POUTRE_3", MATER=BETON_3),
        _F(GROUP_MA="CABLE001", MATER=ACIER),
    ),
)

#

CABLEPR = DEFI_CABLE_BP(
    MODELE=MODELE,
    CHAM_MATER=CHMATER,
    CARA_ELEM=CARAELEM,
    GROUP_MA_BETON=("POUTRE_1", "POUTRE_2", "POUTRE_3"),
    DEFI_CABLE=_F(GROUP_MA="CABLE001", GROUP_NO_ANCRAGE=("NC001001", "NC001021")),
    TYPE_ANCRAGE=("PASSIF", "ACTIF"),
    TENSION_INIT=2.0e5,
    RECUL_ANCRAGE=0.0,
)

#

CHARMECA = AFFE_CHAR_MECA(
    MODELE=MODELE,
    DDL_IMPO=(
        _F(GROUP_NO="NC001001", DX=0.0, DY=0.0, DZ=0.0),
        _F(GROUP_NO="NB001001", DX=0.0, DY=0.0, DZ=0.0, DRY=0.0),
    ),
    RELA_CINE_BP=_F(CABLE_BP=CABLEPR, SIGM_BPEL="OUI", RELA_CINE="OUI"),
    INFO=2,
)

#

LINST = DEFI_LIST_REEL(VALE=(0.0, 1.0))

#

EVOLNOLI = STAT_NON_LINE(
    MODELE=MODELE,
    CHAM_MATER=CHMATER,
    CARA_ELEM=CARAELEM,
    EXCIT=_F(CHARGE=CHARMECA),
    COMPORTEMENT=_F(RELATION="ELAS", DEFORMATION="PETIT", TOUT="OUI"),
    INCREMENT=_F(LIST_INST=LINST),
    SOLVEUR=_F(METHODE="MULT_FRONT"),
    CONVERGENCE=_F(ITER_GLOB_MAXI=10, RESI_GLOB_MAXI=1.0e-5),
    INFO=2,
)

EVOLNOLI = CALC_CHAMP(reuse=EVOLNOLI, CONTRAINTE=("EFGE_ELNO"), RESULTAT=EVOLNOLI)

#
########################################################################
# TESTS SUR LES DEPLACEMENTS DES NOEUDS DE LA POUTRE
########################################################################
#

TEST_RESU(
    RESU=_F(
        NUME_ORDRE=1,
        REFERENCE="ANALYTIQUE",
        RESULTAT=EVOLNOLI,
        NOM_CHAM="DEPL",
        GROUP_NO="NB001006",
        NOM_CMP="DX",
        VALE_CALC=-2.03655618e-04,
        VALE_REFE=-2.036552e-4,
        CRITERE="RELATIF",
        PRECISION=1.0e-3,
    )
)

#

TEST_RESU(
    RESU=_F(
        NUME_ORDRE=1,
        REFERENCE="ANALYTIQUE",
        RESULTAT=EVOLNOLI,
        NOM_CHAM="DEPL",
        GROUP_NO="NB001006",
        NOM_CMP="DZ",
        VALE_CALC=3.81854284e-03,
        VALE_REFE=3.8185350000000001e-3,
        CRITERE="RELATIF",
        PRECISION=1.0e-3,
    )
)

#

TEST_RESU(
    RESU=_F(
        NUME_ORDRE=1,
        REFERENCE="ANALYTIQUE",
        RESULTAT=EVOLNOLI,
        NOM_CHAM="DEPL",
        GROUP_NO="NB002006",
        NOM_CMP="DX",
        VALE_CALC=-2.03655618e-04,
        VALE_REFE=-2.036552e-4,
        CRITERE="RELATIF",
        PRECISION=1.0e-3,
    )
)

#

TEST_RESU(
    RESU=_F(
        NUME_ORDRE=1,
        REFERENCE="ANALYTIQUE",
        RESULTAT=EVOLNOLI,
        NOM_CHAM="DEPL",
        GROUP_NO="NB002006",
        NOM_CMP="DZ",
        VALE_CALC=3.81854284e-03,
        VALE_REFE=3.8185350000000001e-3,
        CRITERE="RELATIF",
        PRECISION=1.0e-3,
    )
)

#

TEST_RESU(
    RESU=_F(
        NUME_ORDRE=1,
        REFERENCE="ANALYTIQUE",
        RESULTAT=EVOLNOLI,
        NOM_CHAM="DEPL",
        GROUP_NO="NB001011",
        NOM_CMP="DX",
        VALE_CALC=-4.07311237e-04,
        VALE_REFE=-4.073104e-4,
        CRITERE="RELATIF",
        PRECISION=1.0e-3,
    )
)

#

TEST_RESU(
    RESU=_F(
        NUME_ORDRE=1,
        REFERENCE="ANALYTIQUE",
        RESULTAT=EVOLNOLI,
        NOM_CHAM="DEPL",
        GROUP_NO="NB001011",
        NOM_CMP="DZ",
        VALE_CALC=0.015274171,
        VALE_REFE=0.01527414,
        CRITERE="RELATIF",
        PRECISION=1.0e-3,
    )
)

#

TEST_RESU(
    RESU=_F(
        NUME_ORDRE=1,
        REFERENCE="ANALYTIQUE",
        RESULTAT=EVOLNOLI,
        NOM_CHAM="DEPL",
        GROUP_NO="NB002011",
        NOM_CMP="DX",
        VALE_CALC=-4.07311237e-04,
        VALE_REFE=-4.073104e-4,
        CRITERE="RELATIF",
        PRECISION=1.0e-3,
    )
)

#

TEST_RESU(
    RESU=_F(
        NUME_ORDRE=1,
        REFERENCE="ANALYTIQUE",
        RESULTAT=EVOLNOLI,
        NOM_CHAM="DEPL",
        GROUP_NO="NB002011",
        NOM_CMP="DZ",
        VALE_CALC=0.015274171,
        VALE_REFE=0.01527414,
        CRITERE="RELATIF",
        PRECISION=1.0e-3,
    )
)

#

TEST_RESU(
    RESU=_F(
        NUME_ORDRE=1,
        REFERENCE="ANALYTIQUE",
        RESULTAT=EVOLNOLI,
        NOM_CHAM="DEPL",
        GROUP_NO="NB001016",
        NOM_CMP="DX",
        VALE_CALC=-6.10966855e-04,
        VALE_REFE=-6.1096559999999998e-4,
        CRITERE="RELATIF",
        PRECISION=1.0e-3,
    )
)

#

TEST_RESU(
    RESU=_F(
        NUME_ORDRE=1,
        REFERENCE="ANALYTIQUE",
        RESULTAT=EVOLNOLI,
        NOM_CHAM="DEPL",
        GROUP_NO="NB001016",
        NOM_CMP="DZ",
        VALE_CALC=0.034366886,
        VALE_REFE=0.034366819999999999,
        CRITERE="RELATIF",
        PRECISION=1.0e-3,
    )
)

#

TEST_RESU(
    RESU=_F(
        NUME_ORDRE=1,
        REFERENCE="ANALYTIQUE",
        RESULTAT=EVOLNOLI,
        NOM_CHAM="DEPL",
        GROUP_NO="NB002016",
        NOM_CMP="DX",
        VALE_CALC=-6.10966855e-04,
        VALE_REFE=-6.1096559999999998e-4,
        CRITERE="RELATIF",
        PRECISION=1.0e-3,
    )
)

#

TEST_RESU(
    RESU=_F(
        NUME_ORDRE=1,
        REFERENCE="ANALYTIQUE",
        RESULTAT=EVOLNOLI,
        NOM_CHAM="DEPL",
        GROUP_NO="NB002016",
        NOM_CMP="DZ",
        VALE_CALC=0.034366886,
        VALE_REFE=0.034366819999999999,
        CRITERE="RELATIF",
        PRECISION=1.0e-3,
    )
)

#

TEST_RESU(
    RESU=_F(
        NUME_ORDRE=1,
        REFERENCE="ANALYTIQUE",
        RESULTAT=EVOLNOLI,
        NOM_CHAM="DEPL",
        GROUP_NO="NB001021",
        NOM_CMP="DX",
        VALE_CALC=-8.14622473e-04,
        VALE_REFE=-8.1462080000000001e-4,
        CRITERE="RELATIF",
        PRECISION=1.0e-3,
    )
)

#

TEST_RESU(
    RESU=_F(
        NUME_ORDRE=1,
        REFERENCE="ANALYTIQUE",
        RESULTAT=EVOLNOLI,
        NOM_CHAM="DEPL",
        GROUP_NO="NB001021",
        NOM_CMP="DZ",
        VALE_CALC=0.061096686,
        VALE_REFE=0.061096560000000001,
        CRITERE="RELATIF",
        PRECISION=1.0e-3,
    )
)

#

TEST_RESU(
    RESU=_F(
        NUME_ORDRE=1,
        REFERENCE="ANALYTIQUE",
        RESULTAT=EVOLNOLI,
        NOM_CHAM="DEPL",
        GROUP_NO="NB002021",
        NOM_CMP="DX",
        VALE_CALC=-8.14622473e-04,
        VALE_REFE=-8.1462080000000001e-4,
        CRITERE="RELATIF",
        PRECISION=1.0e-3,
    )
)

#

TEST_RESU(
    RESU=_F(
        NUME_ORDRE=1,
        REFERENCE="ANALYTIQUE",
        RESULTAT=EVOLNOLI,
        NOM_CHAM="DEPL",
        GROUP_NO="NB002021",
        NOM_CMP="DZ",
        VALE_CALC=0.061096686,
        VALE_REFE=0.061096560000000001,
        CRITERE="RELATIF",
        PRECISION=1.0e-3,
    )
)

#
########################################################################
# TESTS SUR LA CONTRAINTE NORMALE DANS LE PLAN MOYEN DE LA POUTRE
########################################################################
#

TEST_RESU(
    RESU=_F(
        NUME_ORDRE=1,
        REFERENCE="ANALYTIQUE",
        RESULTAT=EVOLNOLI,
        NOM_CHAM="EFGE_ELNO",
        GROUP_NO="NB001001",
        NOM_CMP="NXX",
        VALE_CALC=-4.88773484e05,
        VALE_REFE=-4.887725e5,
        CRITERE="RELATIF",
        PRECISION=1.0e-3,
        GROUP_MA="QD001001",
    )
)

#

TEST_RESU(
    RESU=_F(
        NUME_ORDRE=1,
        REFERENCE="ANALYTIQUE",
        RESULTAT=EVOLNOLI,
        NOM_CHAM="EFGE_ELNO",
        GROUP_NO="NB002001",
        NOM_CMP="NXX",
        VALE_CALC=-4.88773484e05,
        VALE_REFE=-4.887725e5,
        CRITERE="RELATIF",
        PRECISION=1.0e-3,
        GROUP_MA="QD001001",
    )
)

#

TEST_RESU(
    RESU=_F(
        NUME_ORDRE=1,
        REFERENCE="ANALYTIQUE",
        RESULTAT=EVOLNOLI,
        NOM_CHAM="EFGE_ELNO",
        GROUP_NO="NB001011",
        NOM_CMP="NXX",
        VALE_CALC=-4.88773484e05,
        VALE_REFE=-4.887725e5,
        CRITERE="RELATIF",
        PRECISION=1.0e-3,
        GROUP_MA="QD001011",
    )
)

#

TEST_RESU(
    RESU=_F(
        NUME_ORDRE=1,
        REFERENCE="ANALYTIQUE",
        RESULTAT=EVOLNOLI,
        NOM_CHAM="EFGE_ELNO",
        GROUP_NO="NB002011",
        NOM_CMP="NXX",
        VALE_CALC=-4.88773484e05,
        VALE_REFE=-4.887725e5,
        CRITERE="RELATIF",
        PRECISION=1.0e-3,
        GROUP_MA="QD001011",
    )
)

#

TEST_RESU(
    RESU=_F(
        NUME_ORDRE=1,
        REFERENCE="ANALYTIQUE",
        RESULTAT=EVOLNOLI,
        NOM_CHAM="EFGE_ELNO",
        GROUP_NO="NB001021",
        NOM_CMP="NXX",
        VALE_CALC=-4.88773484e05,
        VALE_REFE=-4.887725e5,
        CRITERE="RELATIF",
        PRECISION=1.0e-3,
        GROUP_MA="QD001020",
    )
)

#

TEST_RESU(
    RESU=_F(
        NUME_ORDRE=1,
        REFERENCE="ANALYTIQUE",
        RESULTAT=EVOLNOLI,
        NOM_CHAM="EFGE_ELNO",
        GROUP_NO="NB002021",
        NOM_CMP="NXX",
        VALE_CALC=-4.88773484e05,
        VALE_REFE=-4.887725e5,
        CRITERE="RELATIF",
        PRECISION=1.0e-3,
        GROUP_MA="QD001020",
    )
)

#

FIN()
