# coding=utf-8
# --------------------------------------------------------------------
# Copyright (C) 1991 - 2025 - EDF R&D - www.code-aster.org
# This file is part of code_aster.
#
# code_aster is free software: you can redistribute it and/or modify
# it under the terms of the GNU General Public License as published by
# the Free Software Foundation, either version 3 of the License, or
# (at your option) any later version.
#
# code_aster is distributed in the hope that it will be useful,
# but WITHOUT ANY WARRANTY; without even the implied warranty of
# MERCHANTABILITY or FITNESS FOR A PARTICULAR PURPOSE.  See the
# GNU General Public License for more details.
#
# You should have received a copy of the GNU General Public License
# along with code_aster.  If not, see <http://www.gnu.org/licenses/>.
# --------------------------------------------------------------------

# person_in_charge: david.haboussa at edf.fr

DEBUT(CODE="OUI", DEBUG=_F(SDVERI="NON"))
# SDVERI='NON' car la verification est trop couteuse en CPU

# ......................................................................
# PLAQUE CARREE EN TRACTION CISAILLEMENT CALCUL 2D CONTRAINTES PLANES
# ELASTOPLASTICITE ISOTROPE VON MISES   (1 QUAD4)
# ......................................................................

MA = LIRE_MAILLAGE(FORMAT="ASTER")

MA = DEFI_GROUP(reuse=MA, MAILLAGE=MA, CREA_GROUP_MA=_F(NOM="ALL", TOUT="OUI"))

MO = AFFE_MODELE(MAILLAGE=MA, AFFE=_F(TOUT="OUI", PHENOMENE="MECANIQUE", MODELISATION="C_PLAN"))

ACIER = DEFI_MATERIAU(
    ELAS=_F(E=195000.0, NU=0.3),
    ECRO_LINE=_F(D_SIGM_EPSI=1930.0, SY=181.0),
    ECRO_NL=_F(R0=181.0, RH=1 / (1.0 / 1930.0 - 1.0 / 195000)),
    PRAGER=_F(C=0.0),
)

CM = AFFE_MATERIAU(MAILLAGE=MA, AFFE=_F(TOUT="OUI", MATER=ACIER))

SIGMA_F = DEFI_FONCTION(
    NOM_PARA="INST",
    VALE=(0.0, 0.0, 1.0, 151.2, 2.0, 257.2, 3.0, 0.0),
    PROL_DROITE="EXCLU",
    PROL_GAUCHE="EXCLU",
)

TAU_F = DEFI_FONCTION(
    NOM_PARA="INST",
    VALE=(0.0, 0.0, 1.0, 93.1, 2.0, 33.1, 3.0, 0.0),
    PROL_DROITE="EXCLU",
    PROL_GAUCHE="EXCLU",
)

TRACTION = AFFE_CHAR_MECA(MODELE=MO, FORCE_CONTOUR=_F(GROUP_MA="GAUCHE", FX=-1.0))

CISAIL = AFFE_CHAR_MECA(
    MODELE=MO,
    FORCE_CONTOUR=(
        _F(GROUP_MA="GAUCHE", FY=-1.0),
        _F(GROUP_MA="DROITE", FY=1.0),
        _F(GROUP_MA="HAUT", FX=1.0),
        _F(GROUP_MA="BAS", FX=-1.0),
    ),
)

LIAISON = AFFE_CHAR_MECA(
    MODELE=MO, DDL_IMPO=(_F(NOEUD="N4", DX=0.0, DY=0.0), _F(NOEUD="N2", DX=0.0))
)

L_INST = DEFI_LIST_REEL(
    DEBUT=0.0,
    INTERVALLE=(
        _F(JUSQU_A=0.1, NOMBRE=1),
        _F(JUSQU_A=0.9, NOMBRE=10),
        _F(JUSQU_A=1.0, NOMBRE=1),
        _F(JUSQU_A=2.0, NOMBRE=40),
        _F(JUSQU_A=3.0, NOMBRE=1),
    ),
)

U = STAT_NON_LINE(
    MODELE=MO,
    CHAM_MATER=CM,
    EXCIT=(
        _F(CHARGE=LIAISON),
        _F(CHARGE=TRACTION, FONC_MULT=SIGMA_F),
        _F(CHARGE=CISAIL, FONC_MULT=TAU_F),
    ),
    COMPORTEMENT=_F(RELATION="VMIS_ISOT_NL", ITER_CPLAN_MAXI=10, RESI_CPLAN_MAXI=1.0e-4),
    INCREMENT=_F(LIST_INST=L_INST),
    NEWTON=_F(MATRICE="TANGENTE", REAC_ITER=3),
    RECH_LINEAIRE=_F(RHO_MAX=150),
)

U = CALC_CHAMP(
    reuse=U,
    RESULTAT=U,
    CRITERES=("SIEQ_ELGA"),
    VARI_INTERNE=("VARI_ELNO"),
    DEFORMATION=("EPSI_ELGA"),
    CONTRAINTE=("SIGM_ELNO"),
)


U = CALC_CHAMP(reuse=U, RESULTAT=U, DEFORMATION=("EPSP_ELGA", "EPSI_ELNO"))


VARI = CREA_CHAMP(
    TYPE_CHAM="ELNO_VARI_R", OPERATION="EXTR", RESULTAT=U, NOM_CHAM="VARI_ELNO", INST=1.0
)

TEST_RESU(
    CHAM_ELEM=_F(
        GROUP_NO="NO2", NOM_CMP="V1", GROUP_MA="CUBE", CHAM_GD=VARI, VALE_CALC=0.020547265463459
    )
)

TEST_RESU(
    RESU=(
        _F(
            INST=1.0,
            RESULTAT=U,
            NOM_CHAM="SIGM_ELNO",
            GROUP_NO="NO2",
            NOM_CMP="SIXX",
            VALE_CALC=151.19999999657,
            GROUP_MA="CUBE",
        ),
        _F(
            INST=1.0,
            RESULTAT=U,
            NOM_CHAM="SIGM_ELNO",
            GROUP_NO="NO2",
            NOM_CMP="SIXY",
            VALE_CALC=93.100000000629,
            GROUP_MA="CUBE",
        ),
        _F(
            INST=1.0,
            RESULTAT=U,
            NOM_CHAM="EPSI_ELNO",
            GROUP_NO="NO2",
            NOM_CMP="EPXX",
            VALE_CALC=0.014829713606921,
            GROUP_MA="CUBE",
        ),
        _F(
            INST=1.0,
            RESULTAT=U,
            NOM_CHAM="EPSI_ELNO",
            GROUP_NO="NO2",
            NOM_CMP="EPXY",
            VALE_CALC=0.013601401082680,
            GROUP_MA="CUBE",
        ),
        _F(
            INST=1.0,
            RESULTAT=U,
            NOM_CHAM="VARI_ELNO",
            GROUP_NO="NO2",
            NOM_CMP="V1",
            VALE_CALC=0.020547265463459,
            GROUP_MA="CUBE",
        ),
        _F(
            INST=1.0,
            RESULTAT=U,
            NOM_CHAM="VARI_ELNO",
            GROUP_NO="NO2",
            NOM_CMP="V2",
            VALE_CALC=1.0,
            GROUP_MA="CUBE",
        ),
        _F(
            INST=2.0,
            RESULTAT=U,
            NOM_CHAM="EPSI_ELNO",
            GROUP_NO="NO2",
            NOM_CMP="EPXX",
            VALE_CALC=0.035324714748763,
            VALE_REFE=0.035264999999999998,
            REFERENCE="ANALYTIQUE",
            PRECISION=1.0e-2,
            GROUP_MA="CUBE",
        ),
        _F(
            INST=2.0,
            RESULTAT=U,
            NOM_CHAM="EPSI_ELNO",
            GROUP_NO="NO2",
            NOM_CMP="EPXY",
            VALE_CALC=0.020351413359005,
            VALE_REFE=0.020471,
            REFERENCE="ANALYTIQUE",
            PRECISION=1.0e-2,
            GROUP_MA="CUBE",
        ),
        _F(
            INST=2.0,
            POINT=1,
            RESULTAT=U,
            NOM_CHAM="EPSP_ELGA",
            NOM_CMP="EPXX",
            VALE_CALC=0.034005740391138,
            VALE_REFE=0.033945999999999997,
            REFERENCE="ANALYTIQUE",
            PRECISION=1.0e-2,
            GROUP_MA="CUBE",
        ),
        _F(
            INST=2.0,
            POINT=1,
            RESULTAT=U,
            NOM_CHAM="EPSP_ELGA",
            NOM_CMP="EPXY",
            VALE_CALC=0.020130746692519,
            VALE_REFE=0.020250000000000001,
            REFERENCE="ANALYTIQUE",
            PRECISION=1.0e-2,
            GROUP_MA="CUBE",
        ),
        _F(
            INST=2.0,
            RESULTAT=U,
            NOM_CHAM="VARI_ELNO",
            GROUP_NO="NO2",
            NOM_CMP="V1",
            VALE_CALC=0.042329286296632,
            VALE_REFE=0.042328999999999999,
            REFERENCE="ANALYTIQUE",
            PRECISION=1.0e-2,
            GROUP_MA="CUBE",
        ),
        _F(
            INST=1.0,
            REFERENCE="ANALYTIQUE",
            POINT=1,
            RESULTAT=U,
            NOM_CHAM="SIEQ_ELGA",
            NOM_CMP="TRIAX",
            VALE_CALC=0.22799999048814,
            VALE_REFE=0.22800000000000001,
            GROUP_MA="CUBE",
        ),
        _F(
            INST=2.0,
            REFERENCE="ANALYTIQUE",
            POINT=4,
            RESULTAT=U,
            NOM_CHAM="SIEQ_ELGA",
            NOM_CMP="TRIAX",
            VALE_CALC=0.32534865277295,
            VALE_REFE=0.325349,
            GROUP_MA="CUBE",
        ),
    )
)

FIN()
