# coding=utf-8
# --------------------------------------------------------------------
# Copyright (C) 1991 - 2025 - EDF R&D - www.code-aster.org
# This file is part of code_aster.
#
# code_aster is free software: you can redistribute it and/or modify
# it under the terms of the GNU General Public License as published by
# the Free Software Foundation, either version 3 of the License, or
# (at your option) any later version.
#
# code_aster is distributed in the hope that it will be useful,
# but WITHOUT ANY WARRANTY; without even the implied warranty of
# MERCHANTABILITY or FITNESS FOR A PARTICULAR PURPOSE.  See the
# GNU General Public License for more details.
#
# You should have received a copy of the GNU General Public License
# along with code_aster.  If not, see <http://www.gnu.org/licenses/>.
# --------------------------------------------------------------------

DEBUT(CODE="OUI", ERREUR=_F(ALARME="EXCEPTION"), DEBUG=_F(SDVERI="OUI"))

################
### MAILLAGE ###
################

MA = LIRE_MAILLAGE(FORMAT="MED")

MA = MODI_MAILLAGE(
    reuse=MA, MAILLAGE=MA, ORIE_PEAU=(_F(GROUP_MA_PEAU="SCO1"), _F(GROUP_MA_PEAU="SCO2"))
)

##############
### MODELE ###
##############

MO = AFFE_MODELE(MAILLAGE=MA, AFFE=_F(TOUT="OUI", PHENOMENE="MECANIQUE", MODELISATION="D_PLAN"))
#################
### MATERIAUX ###
#################

BASUP = DEFI_MATERIAU(
    ELAS=_F(E=1.0e5, NU=0.3, RHO=2.7e-5), ECRO_LINE=_F(D_SIGM_EPSI=9.0e4, SY=10.0e100)
)

BAINF = DEFI_MATERIAU(
    ELAS=_F(E=1.0e3, NU=0.3, RHO=2.7e-5), ECRO_LINE=_F(D_SIGM_EPSI=9.0e2, SY=10.0e100)
)

BLOCK = DEFI_MATERIAU(
    ELAS=_F(E=3.0e2, NU=0.3, RHO=2.7e-5), ECRO_LINE=_F(D_SIGM_EPSI=10.0, SY=10.0e100)
)

CHMAT = AFFE_MATERIAU(
    MAILLAGE=MA,
    MODELE=MO,
    AFFE=(
        _F(GROUP_MA="BASUP", MATER=BASUP),
        _F(GROUP_MA="BAINF", MATER=BAINF),
        _F(GROUP_MA="BLOC", MATER=BLOCK),
    ),
)

########################
### CHARGEMENT ET CL ###
########################

CHA1 = AFFE_CHAR_MECA(
    MODELE=MO, DDL_IMPO=(_F(GROUP_MA="SU1", DX=0.0, DY=0.0), _F(GROUP_MA="DEPL", DX=0.0, DY=-90.0))
)

RAMPE = DEFI_FONCTION(
    NOM_PARA="INST", VALE=(0.0, 0.0, 1.0, 1.0), PROL_DROITE="LINEAIRE", PROL_GAUCHE="LINEAIRE"
)

###############
### CONTACT ###
###############

NGENE = DEFI_CONTACT(
    MODELE=MO,
    FORMULATION="CONTINUE",
    FROTTEMENT="COULOMB",
    CONT_STAT_ELAS=3,
    LISSAGE="OUI",
    RESI_GEOM=1.0e-3,
    ZONE=_F(
        GROUP_MA_MAIT="SCO2",
        GROUP_MA_ESCL="SCO1",
        SANS_GROUP_NO="SANS",
        ALGO_CONT="STANDARD",
        COEF_CONT=1.0e2,
        COULOMB=0.5,
    ),
)

######################
### LISTE INSTANTS ###
######################

L_INST = DEFI_LIST_REEL(DEBUT=0.0, INTERVALLE=(_F(JUSQU_A=0.6, NOMBRE=12),))

LINST = DEFI_LIST_INST(
    METHODE="MANUEL", DEFI_LIST=_F(LIST_INST=L_INST), ECHEC=_F(SUBD_PAS=5, SUBD_NIVEAU=5)
)

##################
### RESOLUTION ###
##################

RESU = DYNA_NON_LINE(
    MODELE=MO,
    CHAM_MATER=CHMAT,
    EXCIT=_F(CHARGE=CHA1, FONC_MULT=RAMPE),
    CONTACT=NGENE,
    COMPORTEMENT=_F(RELATION="VMIS_ISOT_LINE", DEFORMATION="GDEF_LOG"),
    INCREMENT=_F(LIST_INST=LINST),
    SCHEMA_TEMPS=_F(SCHEMA="HHT", ALPHA=-0.3, MODI_EQUI="NON", FORMULATION="DEPLACEMENT"),
    NEWTON=_F(PREDICTION="ELASTIQUE", MATRICE="TANGENTE", REAC_ITER=1),
    ARCHIVAGE=_F(LIST_INST=L_INST),
)

#######################
### POST-TRAITEMENT ###
#######################

RESU = CALC_CHAMP(reuse=RESU, RESULTAT=RESU, FORCE=("FORC_NODA", "REAC_NODA"), CRITERES="SIEQ_NOEU")

RESU = CALC_CHAMP(reuse=RESU, RESULTAT=RESU, DEFORMATION="EPSL_NOEU")

IMPR_RESU(UNITE=80, FORMAT="MED", RESU=_F(RESULTAT=RESU))

##################
### VALIDATION ###
##################

TEST_RESU(
    RESU=(
        _F(
            RESULTAT=RESU,
            INST=0.40,
            NOM_CHAM="DEPL",
            NOM_CMP="DX",
            GROUP_NO="PA",
            CRITERE="ABSOLU",
            VALE_CALC=0.0,
            ORDRE_GRANDEUR=1.0,
        ),
        _F(
            RESULTAT=RESU,
            INST=0.60,
            NOM_CHAM="DEPL",
            NOM_CMP="DX",
            GROUP_NO="PA",
            CRITERE="ABSOLU",
            VALE_CALC=0.0,
            ORDRE_GRANDEUR=1.0,
        ),
        _F(
            RESULTAT=RESU,
            INST=0.40,
            NOM_CHAM="DEPL",
            NOM_CMP="DY",
            GROUP_NO="PA",
            VALE_CALC=-4.3809537274713035,
        ),
        _F(
            RESULTAT=RESU,
            INST=0.60,
            NOM_CHAM="DEPL",
            NOM_CMP="DY",
            GROUP_NO="PA",
            VALE_CALC=-2.9449866680695718,
        ),
        _F(
            RESULTAT=RESU,
            INST=0.40,
            NOM_CHAM="DEPL",
            NOM_CMP="LAGS_C",
            GROUP_NO="PA",
            VALE_CALC=-35.07932512548218,
        ),
        _F(
            RESULTAT=RESU,
            INST=0.60,
            NOM_CHAM="DEPL",
            NOM_CMP="LAGS_C",
            GROUP_NO="PA",
            VALE_CALC=-17.339445991701297,
        ),
        _F(
            RESULTAT=RESU,
            INST=0.40,
            NOM_CHAM="DEPL",
            NOM_CMP="LAGS_F1",
            GROUP_NO="PA",
            CRITERE="ABSOLU",
            VALE_CALC=0.0,
            ORDRE_GRANDEUR=1.0,
        ),
        _F(
            RESULTAT=RESU,
            INST=0.60,
            NOM_CHAM="DEPL",
            NOM_CMP="LAGS_F1",
            CRITERE="ABSOLU",
            GROUP_NO="PA",
            VALE_CALC=0.0,
            ORDRE_GRANDEUR=1.0,
        ),
        _F(
            RESULTAT=RESU,
            INST=0.40,
            NOM_CHAM="DEPL",
            NOM_CMP="DX",
            GROUP_NO="PB",
            CRITERE="ABSOLU",
            VALE_CALC=-0.0836521971441,
        ),
        _F(
            RESULTAT=RESU,
            INST=0.60,
            NOM_CHAM="DEPL",
            NOM_CMP="DX",
            GROUP_NO="PB",
            CRITERE="ABSOLU",
            VALE_CALC=-2.121953826727,
        ),
        _F(
            RESULTAT=RESU,
            INST=0.40,
            NOM_CHAM="DEPL",
            NOM_CMP="DY",
            GROUP_NO="PB",
            VALE_CALC=-0.0197568007276,
        ),
        _F(
            RESULTAT=RESU,
            INST=0.60,
            NOM_CHAM="DEPL",
            NOM_CMP="DY",
            GROUP_NO="PB",
            VALE_CALC=-5.4730482769100,
        ),
        _F(
            RESULTAT=RESU,
            INST=0.40,
            NOM_CHAM="DEPL",
            NOM_CMP="LAGS_C",
            GROUP_NO="PB",
            VALE_CALC=0.0,
            ORDRE_GRANDEUR=1.0,
        ),
        _F(
            RESULTAT=RESU,
            INST=0.60,
            NOM_CHAM="DEPL",
            NOM_CMP="LAGS_C",
            GROUP_NO="PB",
            VALE_CALC=-67.52869283575274,
        ),
        _F(
            RESULTAT=RESU,
            INST=0.40,
            NOM_CHAM="DEPL",
            NOM_CMP="LAGS_F1",
            GROUP_NO="PB",
            VALE_CALC=0.0,
            ORDRE_GRANDEUR=1.0,
        ),
        _F(
            RESULTAT=RESU,
            INST=0.60,
            NOM_CHAM="DEPL",
            NOM_CMP="LAGS_F1",
            GROUP_NO="PB",
            VALE_CALC=0.3052489636662426,
        ),
    )
)

FIN()
