# coding=utf-8
# --------------------------------------------------------------------
# Copyright (C) 1991 - 2025 - EDF R&D - www.code-aster.org
# This file is part of code_aster.
#
# code_aster is free software: you can redistribute it and/or modify
# it under the terms of the GNU General Public License as published by
# the Free Software Foundation, either version 3 of the License, or
# (at your option) any later version.
#
# code_aster is distributed in the hope that it will be useful,
# but WITHOUT ANY WARRANTY; without even the implied warranty of
# MERCHANTABILITY or FITNESS FOR A PARTICULAR PURPOSE.  See the
# GNU General Public License for more details.
#
# You should have received a copy of the GNU General Public License
# along with code_aster.  If not, see <http://www.gnu.org/licenses/>.
# --------------------------------------------------------------------

DEBUT(CODE="OUI", ERREUR=_F(ALARME="ALARME"), DEBUG=_F(SDVERI="OUI"))

MESH = LIRE_MAILLAGE(FORMAT="MED")

MESH = MODI_MAILLAGE(
    reuse=MESH, MAILLAGE=MESH, ORIE_PEAU=(_F(GROUP_MA_PEAU="Top_B"), _F(GROUP_MA_PEAU="Bottom_C"))
)

MESH = DEFI_GROUP(reuse=MESH, MAILLAGE=MESH, CREA_GROUP_NO=_F(TOUT_GROUP_MA="OUI"))

MAT_cy = DEFI_MATERIAU(ELAS=_F(E=210000.0, NU=0.3))

MAT_bl = DEFI_MATERIAU(ELAS=_F(E=70000.0, NU=0.3))

FONC = DEFI_FONCTION(
    NOM_PARA="INST", VALE=(0.0, 0.0, 1.0, 1.0), PROL_DROITE="LINEAIRE", PROL_GAUCHE="LINEAIRE"
)

L_INST = DEFI_LIST_REEL(DEBUT=0.0, INTERVALLE=_F(JUSQU_A=1.0, NOMBRE=2))

MO = AFFE_MODELE(
    MAILLAGE=MESH,
    AFFE=(
        _F(GROUP_MA=("Block",), PHENOMENE="MECANIQUE", MODELISATION=("D_PLAN",)),
        _F(GROUP_MA=("Cylinder",), PHENOMENE="MECANIQUE", MODELISATION=("D_PLAN",)),
    ),
)

MA = AFFE_MATERIAU(
    MAILLAGE=MESH, AFFE=(_F(GROUP_MA="Block", MATER=MAT_bl), _F(GROUP_MA="Cylinder", MATER=MAT_cy))
)

CH_LIM = AFFE_CHAR_CINE(
    MODELE=MO, MECA_IMPO=(_F(GROUP_NO="Axe", DX=0.0), _F(GROUP_NO="Encast", DX=0.0, DY=0.0))
)

FORCE = AFFE_CHAR_MECA(MODELE=MO, FORCE_NODALE=_F(GROUP_NO="Force", FY=-17500.0))

CONT = DEFI_CONTACT(
    MODELE=MO,
    FORMULATION="CONTINUE",
    FROTTEMENT="COULOMB",
    ALGO_RESO_CONT="NEWTON",
    ALGO_RESO_GEOM="NEWTON",
    ALGO_RESO_FROT="NEWTON",
    ZONE=_F(
        GROUP_MA_MAIT="Top_B",
        GROUP_MA_ESCL="Bottom_C",
        CONTACT_INIT="INTERPENETRE",
        COULOMB=0.1,
        INTEGRATION="AUTO",
        SANS_GROUP_NO_FR="C",
    ),
)

MESH = DEFI_GROUP(
    reuse=MESH,
    MAILLAGE=MESH,
    CREA_GROUP_NO=(
        _F(OPTION="NOEUD_ORDO", NOM="Bottom_n", GROUP_MA="Bottom_C", GROUP_NO_ORIG="C"),
        _F(OPTION="NOEUD_ORDO", NOM="Top_n", GROUP_MA="Top_B", GROUP_NO_ORIG="B"),
    ),
)

RESU = STAT_NON_LINE(
    MODELE=MO,
    CHAM_MATER=MA,
    EXCIT=(_F(CHARGE=CH_LIM), _F(CHARGE=FORCE, FONC_MULT=FONC)),
    CONTACT=CONT,
    COMPORTEMENT=_F(RELATION="ELAS"),
    INCREMENT=_F(LIST_INST=L_INST),
    CONVERGENCE=_F(ITER_GLOB_MAXI=50),
    SOLVEUR=_F(),
    NEWTON=_F(REAC_ITER=1),
)

RESU = CALC_CHAMP(reuse=RESU, RESULTAT=RESU, CONTRAINTE=("SIEF_ELNO"))


RESU = CALC_CHAMP(
    reuse=RESU, RESULTAT=RESU, CONTRAINTE="SIEF_NOEU", FORCE=("FORC_NODA", "REAC_NODA")
)

IMPR_RESU(FORMAT="MED", UNITE=80, RESU=_F(RESULTAT=RESU, NOM_CHAM=("DEPL", "FORC_NODA")))

IMPR_RESU(FORMAT="MED", UNITE=81, RESU=_F(RESULTAT=RESU, NOM_CHAM="DEPL", NOM_CMP=("DX", "DY")))

MOINS_UN = FORMULE(VALE="-1.0*LAGS_C", NOM_PARA="LAGS_C")
PRESTANG = FORMULE(VALE="-0.1*LAGS_C*abs(LAGS_F1)", NOM_PARA=["LAGS_C", "LAGS_F1"])

RELE = POST_RELEVE_T(
    ACTION=_F(
        OPERATION="EXTRACTION",
        INTITULE="Pression",
        RESULTAT=RESU,
        NOM_CHAM="DEPL",
        INST=1.0,
        GROUP_NO="Bottom_n",
        NOM_CMP=("LAGS_C", "LAGS_F1"),
    )
)

RELE = CALC_TABLE(
    reuse=RELE,
    TABLE=RELE,
    ACTION=(
        _F(OPERATION="OPER", NOM_PARA="MLAGS_C", FORMULE=MOINS_UN),
        _F(OPERATION="OPER", NOM_PARA="MLAGS_F1", FORMULE=PRESTANG),
    ),
)

PRES = RECU_FONCTION(TABLE=RELE, PARA_X="ABSC_CURV", PARA_Y="MLAGS_C")

PRES_T = RECU_FONCTION(TABLE=RELE, PARA_X="ABSC_CURV", PARA_Y="MLAGS_F1")

# ===========================================

# champ de contraintes de Cauchy aux noeuds
RESU = CALC_PRESSION(
    reuse=RESU,
    GROUP_MA=("Bottom_C", "Top_B"),
    MAILLAGE=MESH,
    INST=(1.0,),
    RESULTAT=RESU,
    GEOMETRIE="DEFORMEE",
    INFO=1,
)

depl = CREA_CHAMP(
    TYPE_CHAM="NOEU_DEPL_R", OPERATION="EXTR", RESULTAT=RESU, NOM_CHAM="DEPL", INST=1.0
)
mdepl = CREA_CHAMP(TYPE_CHAM="NOEU_DEPL_R", OPERATION="COMB", COMB=_F(CHAM_GD=depl, COEF_R=-1.0))

MESH = MODI_MAILLAGE(reuse=MESH, MAILLAGE=MESH, DEFORME=_F(OPTION="TRAN", DEPL=depl))

# abscisse curviligne sur la deformee
CALC_PSF = POST_RELEVE_T(
    ACTION=_F(
        OPERATION="EXTRACTION",
        RESULTAT=RESU,
        INTITULE="P_S",
        NOM_CHAM="PRES_NOEU",
        TOUT_CMP="OUI",
        GROUP_NO="Bottom_n",
    )
)

# abscisse curviligne sur la deformee
CALC_PMF = POST_RELEVE_T(
    ACTION=_F(
        OPERATION="EXTRACTION",
        RESULTAT=RESU,
        INTITULE="P_M",
        NOM_CHAM="PRES_NOEU",
        TOUT_CMP="OUI",
        GROUP_NO="Top_n",
    )
)

MESH = MODI_MAILLAGE(reuse=MESH, MAILLAGE=MESH, DEFORME=_F(OPTION="TRAN", DEPL=mdepl))

PS_FONCF = RECU_FONCTION(TABLE=CALC_PSF, PARA_X="ABSC_CURV", PARA_Y="PRES")

PS_FONCF = CALC_FONCTION(ABS=_F(FONCTION=PS_FONCF), NOM_PARA="ABSC")

PS_TANG = RECU_FONCTION(TABLE=CALC_PSF, PARA_X="ABSC_CURV", PARA_Y="CISA")

PM_FONCF = RECU_FONCTION(TABLE=CALC_PMF, PARA_X="ABSC_CURV", PARA_Y="PRES")

PM_FONCF = CALC_FONCTION(ABS=_F(FONCTION=PM_FONCF), NOM_PARA="ABSC")

PM_TANG = RECU_FONCTION(TABLE=CALC_PMF, PARA_X="ABSC_CURV", PARA_Y="CISA")

# ===========================================
IMPR_FONCTION(
    FORMAT="XMGRACE",
    UNITE=29,
    COURBE=(
        _F(FONCTION=PRES, LEGENDE="Pression de contact", MARQUEUR=0),
        _F(FONCTION=PRES_T, LEGENDE="Contrainte tangentielle", MARQUEUR=0),
        _F(FONCTION=PS_FONCF, LEGENDE="Pression extrapolee esclave", MARQUEUR=0),
        _F(FONCTION=PM_FONCF, LEGENDE="Pression extrapolee maitre", MARQUEUR=0),
        _F(FONCTION=PS_TANG, LEGENDE="Contrainte tang. extr. esclave", MARQUEUR=0),
        _F(FONCTION=PM_TANG, LEGENDE="Contrainte tang. extr. maitre", MARQUEUR=0),
    ),
    TITRE="Lineaire sans frottement",
    BORNE_X=(0.0, 8.0),
    BORNE_Y=(0.0, 5000.0),
    ECHELLE_X="LIN",
    ECHELLE_Y="LIN",
    GRILLE_X=1,
    GRILLE_Y=500,
    LEGENDE_X="Abscisse curviligne (mm)",
    LEGENDE_Y="Densite surfacique (N/mm2)",
)


# ===========================================
# Tests

TEST_RESU(
    RESU=(
        _F(
            GROUP_NO="B",
            INST=1.0,
            REFERENCE="SOURCE_EXTERNE",
            RESULTAT=RESU,
            NOM_CHAM="DEPL",
            NOM_CMP="DY",
            VALE_CALC=-1.2703109746450325,
            VALE_REFE=-1.3026356448389,
            PRECISION=0.025,
        ),
        _F(
            GROUP_NO="B",
            INST=1.0,
            REFERENCE="SOURCE_EXTERNE",
            RESULTAT=RESU,
            NOM_CHAM="SIEF_NOEU",
            NOM_CMP="SIYY",
            VALE_CALC=-3643.5619389874764,
            VALE_REFE=-3542.6878770218,
            PRECISION=0.029,
        ),
    )
)

# Vérification de la force tangentielle
TEST_RESU(
    RESU=(
        _F(
            GROUP_NO="B",
            INST=1.0,
            RESULTAT=RESU,
            NOM_CHAM="PRES_NOEU",
            NOM_CMP="VX",
            VALE_CALC=47.50792998023794,
        ),
        _F(
            GROUP_NO="B",
            INST=1.0,
            RESULTAT=RESU,
            NOM_CHAM="PRES_NOEU",
            NOM_CMP="VY",
            VALE_CALC=0.08685264239123569,
        ),
    )
)

FIN()
