# coding=utf-8
# --------------------------------------------------------------------
# Copyright (C) 1991 - 2025 - EDF R&D - www.code-aster.org
# This file is part of code_aster.
#
# code_aster is free software: you can redistribute it and/or modify
# it under the terms of the GNU General Public License as published by
# the Free Software Foundation, either version 3 of the License, or
# (at your option) any later version.
#
# code_aster is distributed in the hope that it will be useful,
# but WITHOUT ANY WARRANTY; without even the implied warranty of
# MERCHANTABILITY or FITNESS FOR A PARTICULAR PURPOSE.  See the
# GNU General Public License for more details.
#
# You should have received a copy of the GNU General Public License
# along with code_aster.  If not, see <http://www.gnu.org/licenses/>.
# --------------------------------------------------------------------

DEBUT(CODE="OUI", ERREUR=_F(ALARME="EXCEPTION"), DEBUG=_F(SDVERI="OUI"))

from math import *

# INSTANT FINAL (IL FAUT AVOIR UN MULTIPLE DE 4)
insfin = 4 * 10
# REGULARISATION NORMALE DE LA COURBE FORCE-DEPLACEMENT
k_n = 1.0e12
# REGULARISATION TANGENTIELLE DE LA COURBE FORCE-DEPLACEMENT
k_t = 2.0 * k_n
# COEFFICIENT DE FROTTEMENT
mu = 1.0
# PARAMETRE DE LA FONCTION D'ENDOMMAGEMENT
D1 = 1.0
# PARAMETRES MATERIAU DU CUBE
young = 3.0e12
poiss = 0.0
# PARAMETRE DE L'INCLINAISON DE JOINT (NE PAS MODIFIER, LIE AU MAILLAGE)
angle = 30.0 / 180 * pi

# PARA qui donne un shift tangentiel pour un chargement en cisaillement au depart
shift_z = 1.0e-6

# CALCUL DE Bn ET Bt EN FONCTION DE CC ET TT
#   Avec CC le Surplus de cohesion en cisaillement
#   et TT la Resitance a la traction
CC = 10000.0
TT = 9000.0


def CalcBnBt(CC, TT):
    # m1 et m2 sont des paramètres en dur assurant une
    # "bonne tête" de la partie endommagement
    m1 = 3.0
    m2 = 0.5
    alpha_max = (-m2 + sqrt(m1 * m2 / (m1 - m2 + 1))) / (m1 - m2)
    S_alpha_max = ((1 - alpha_max) ** m1) / (alpha_max**m2)
    Sp_alpha_max = (
        ((m2 - m1) * alpha_max - m2) * ((1 - alpha_max) ** (m1 - 1)) / (alpha_max ** (m2 + 1))
    )
    Bn = (-Sp_alpha_max * TT**2) / (2.0 * D1 * S_alpha_max**2)
    Bt = (-Sp_alpha_max * (CC**2 - mu**2 * TT**2)) / (2.0 * D1 * S_alpha_max**2)
    return Bn, Bt


Bn, Bt = CalcBnBt(CC, TT)

###################################################################################
# ----------------------------------------------------------------------------------
# DEFINITION DU MODELE, DES MATERIAUX ET DE L'ENCASTREMENT
# ----------------------------------------------------------------------------------
###################################################################################
MA = LIRE_MAILLAGE(FORMAT="MED")

# MA_TMP=LIRE_MAILLAGE(FORMAT="ASTER",)
# MA=CREA_MAILLAGE(MAILLAGE  = MA_TMP, LINE_QUAD = _F(TOUT='OUI'),INFO=2)
MA = MODI_MAILLAGE(reuse=MA, MAILLAGE=MA, ORIE_FISSURE=_F(GROUP_MA="JOINT"), INFO=2)

MA = DEFI_GROUP(
    reuse=MA,
    MAILLAGE=MA,
    CREA_GROUP_NO=(_F(GROUP_MA="DROITE", NOM="DROITE"), _F(GROUP_MA="ENCAS", NOM="ENCAS")),
)

MO = AFFE_MODELE(
    MAILLAGE=MA,
    AFFE=(
        _F(GROUP_MA=("CUBE", "DROITE"), PHENOMENE="MECANIQUE", MODELISATION="3D"),
        _F(GROUP_MA="JOINT", PHENOMENE="MECANIQUE", MODELISATION="3D_JOINT"),
    ),
)

# MATERIAU ELASTIQUE
MAT_CUB = DEFI_MATERIAU(ELAS=_F(E=young, NU=poiss))

# MATERIAU JOINT
MAT_JOI = DEFI_MATERIAU(
    JOINT_MECA_ENDO=_F(K_N=k_n, K_T=k_t, MU=mu, PENA_RUPTURE=D1, Bn=Bn, Bt=Bt, ALPHA=1.0e-7)
)

CM = AFFE_MATERIAU(
    MAILLAGE=MA, AFFE=(_F(GROUP_MA="CUBE", MATER=MAT_CUB), _F(GROUP_MA="JOINT", MATER=MAT_JOI))
)

# ENCASTREMENT D'UNE DES LEVRES DU JOINT
LIAISON = AFFE_CHAR_MECA(MODELE=MO, FACE_IMPO=(_F(GROUP_MA="ENCAS", DX=0.0, DY=0.0, DZ=shift_z),))

###################################################################################
# ----------------------------------------------------------------------------------
# CALCUL AVEC CHARGEMENT EN MODE I PURE
# ----------------------------------------------------------------------------------
###################################################################################

# CHARGEMENT MODE I PUR
TRAC_1 = AFFE_CHAR_MECA(
    MODELE=MO, FACE_IMPO=(_F(GROUP_MA="DROITE", DX=cos(angle), DY=sin(angle), DZ=0.0),)
)

# CREATION DE LISTE D'INSTANT
LR = DEFI_LIST_REEL(VALE=list(range(insfin + 1)))
L_INST = DEFI_LIST_INST(
    DEFI_LIST=_F(LIST_INST=LR),
    ECHEC=_F(
        ACTION="DECOUPE",
        EVENEMENT="ERREUR",
        SUBD_METHODE="MANUEL",
        SUBD_NIVEAU=2,
        SUBD_PAS=10,
        SUBD_PAS_MINI=0.1,
    ),
)

# LISTE D'INSTANTS POUR LES TESTS DE RESULTATS
linst = [0, insfin / 4, insfin / 2, 3 * insfin / 4, insfin]
FCT = DEFI_FONCTION(
    NOM_PARA="INST",
    VALE=(linst[0], 0.0, linst[1], 6e-6, linst[2], 1e-4, linst[3], 5e-4, linst[4], 4.9999e-4),
    PROL_DROITE="LINEAIRE",
)

U_1 = STAT_NON_LINE(
    MODELE=MO,
    CHAM_MATER=CM,
    EXCIT=(_F(CHARGE=LIAISON), _F(CHARGE=TRAC_1, FONC_MULT=FCT)),
    COMPORTEMENT=(
        _F(RELATION="JOINT_MECA_ENDO", GROUP_MA="JOINT"),
        _F(RELATION="ELAS", GROUP_MA="CUBE"),
    ),
    INCREMENT=_F(LIST_INST=L_INST, INST_FIN=insfin),
    SOLVEUR=_F(METHODE="MUMPS"),
    CONVERGENCE=_F(ITER_GLOB_MAXI=10, RESI_GLOB_RELA=1.0e-6),
    NEWTON=_F(MATRICE="TANGENTE", REAC_ITER=1),
)

# ----------------------------------------------------------------------------------
# POST TRAITEMENT MODE I PURE
# -----------------------------------------------------------------------------------
# CALCUL DE LA FORCE NODALE
U_1 = CALC_CHAMP(RESULTAT=U_1, reuse=U_1, VARI_INTERNE="VARI_NOEU")

# RECUPERATION DE LA CONTRAINTE NORMALE
TSIGMA_N = POST_RELEVE_T(
    ACTION=_F(
        OPERATION="EXTRACTION",
        INTITULE="SIGMA_N",
        RESULTAT=U_1,
        NOM_CHAM="VARI_NOEU",
        TOUT_ORDRE="OUI",
        GROUP_NO="P1",
        NOM_CMP="V11",
    )
)

# RECUPERATION DU DEPLACEMENT NORMAL
TDELTA_N = POST_RELEVE_T(
    ACTION=_F(
        OPERATION="EXTRACTION",
        INTITULE="DELTA_N",
        RESULTAT=U_1,
        NOM_CHAM="VARI_NOEU",
        TOUT_ORDRE="OUI",
        GROUP_NO="P1",
        NOM_CMP="V7",
    )
)

SN = RECU_FONCTION(TABLE=TSIGMA_N, PARA_X="INST", PARA_Y="V11")

DN = RECU_FONCTION(TABLE=TDELTA_N, PARA_X="INST", PARA_Y="V7")

TAB_RESU = CALC_TABLE(
    TABLE=TSIGMA_N, ACTION=_F(OPERATION="COMB", TABLE=TDELTA_N, NOM_PARA=("INST"), RESTREINT="NON")
)

# IMPR_TABLE( TABLE = TAB_RESU, FORMAT = 'TABLEAU', SEPARATEUR = ';', UNITE = 8);

## EN MODE INTERACTIF SEULEMENT
IMPR_FONCTION(
    FORMAT="XMGRACE",
    # PILOTE = 'INTERACTIF',
    COURBE=_F(FONC_X=DN, FONC_Y=SN, LEGENDE="F(U)"),
    LEGENDE_X="\\xd\\s\\0n",
    LEGENDE_Y="F\\sn",
    TITRE="mode I avec charge-decharge en 3D",
)


# IMPR_RESU(FORMAT='RESULTAT',RESU=(_F(RESULTAT=U_1,GROUP_MA='JOINT',NOM_CHAM='VARI_ELGA')))
# NOM_CMP=('V3','V4','V5','V11','V19','V20','V7','V8','V9','V1','V2','V6')

# vari_list = ('V3','V4','V5','V11','V19','V20','V7','V8','V9','V1','V2','V6')
vari_list = ("V3", "V5", "V11", "V20", "V7", "V9", "V1", "V2", "V6")
# to recover from .resu
vari_test = (
    9.99960e-05,
    -9.99946e-07,
    2.9711549e03,
    -2.97108e01,
    9.99990e-05,
    -9.99960e-07,
    9.99960e-05,
    2.00000e00,
    4.70864e-01,
)
value2check = dict(zip(vari_list, vari_test))
# instant ou on teste les valeurs par non regression
inst2check = insfin / 2
# numero du point Gauss
gauss2print = 1

FONC_DICT = {}
VAR_TABLE = {}

FONC_DICT_INIT = RECU_FONCTION(
    RESULTAT=U_1, NOM_CHAM="VARI_ELGA", NOM_CMP=vari_list[0], GROUP_MA="JOINT", POINT=gauss2print
)
ALL_TABLE = CREA_TABLE(FONCTION=_F(FONCTION=FONC_DICT_INIT))
# IMPR_TABLE(TABLE=VAR_TABLE[vari_name])
for vari_name in vari_list[1:]:
    FONC_DICT[vari_name] = RECU_FONCTION(
        RESULTAT=U_1, NOM_CHAM="VARI_ELGA", NOM_CMP=vari_name, GROUP_MA="JOINT", POINT=gauss2print
    )
    VAR_TABLE[vari_name] = CREA_TABLE(FONCTION=_F(FONCTION=FONC_DICT[vari_name]))
    ALL_TABLE = CALC_TABLE(
        TABLE=ALL_TABLE,
        ACTION=_F(OPERATION="COMB", TABLE=VAR_TABLE[vari_name], NOM_PARA=("INST"), RESTREINT="NON"),
    )
    TEST_TABLE(
        VALE_CALC=value2check[vari_name],
        NOM_PARA=vari_name,
        FILTRE=(_F(NOM_PARA="INST", VALE=inst2check),),
        TABLE=ALL_TABLE,
    )

IMPR_TABLE(TABLE=ALL_TABLE, SEPARATEUR=", ", FORMAT_R="E13.6")

TEST_TABLE(
    REFERENCE="ANALYTIQUE",
    PRECISION=0.02,
    VALE_CALC=8.88062e03,
    VALE_REFE=TT,
    NOM_PARA="V11",
    TYPE_TEST="MAX",
    TABLE=ALL_TABLE,
)

FIN()
