# coding=utf-8
# --------------------------------------------------------------------
# Copyright (C) 1991 - 2025 - EDF R&D - www.code-aster.org
# This file is part of code_aster.
#
# code_aster is free software: you can redistribute it and/or modify
# it under the terms of the GNU General Public License as published by
# the Free Software Foundation, either version 3 of the License, or
# (at your option) any later version.
#
# code_aster is distributed in the hope that it will be useful,
# but WITHOUT ANY WARRANTY; without even the implied warranty of
# MERCHANTABILITY or FITNESS FOR A PARTICULAR PURPOSE.  See the
# GNU General Public License for more details.
#
# You should have received a copy of the GNU General Public License
# along with code_aster.  If not, see <http://www.gnu.org/licenses/>.
# --------------------------------------------------------------------

DEBUT(CODE="OUI", DEBUG=_F(SDVERI="OUI"))

# CALCUL DU TAUX DE RESTITUTION D'ENERGIE EN ELASTICITE NON LINEAIRE
# MODE MIXTE
# DEFORMATIONS PLANES
# PLAQUE COMPLETE TRAITEE

########################################################################
#                      PARAMETRES DU CAS-TEST                          #
########################################################################
sigma_max = 150.0e6
poisson = 0.3
EE = 2.1e11
ratio = 4.0
# info sur le maillage
r_min_mesh = 1.0e-6
LONG = 0.400  # taille verticale de l'echantillon
long_fiss = 0.050  # longueur de fissure
depl_max = sigma_max / EE * LONG  # deplacement max de plastification
# depl_init = depl_max*sqrt(r_min_mesh/long_fiss) # depl lors de regime lineaire

########################################################################
#                          MISE EN DONNEES                             #
########################################################################
# LECTURE DU MAILLAGE LINEAIRE
MESH0 = LIRE_MAILLAGE(UNITE=20)

# CREATION DU MAILLAGE QUADRATQUE
MESH = CREA_MAILLAGE(MODI_HHO=_F(TOUT="OUI"), MAILLAGE=MESH0)

MESH = MODI_MAILLAGE(reuse=MESH, MAILLAGE=MESH, ORIE_PEAU=_F(GROUP_MA_PEAU=("HAUT")))


MODE = AFFE_MODELE(
    AFFE=_F(
        MODELISATION="D_PLAN_HHO", FORMULATION="QUADRATIQUE", PHENOMENE="MECANIQUE", TOUT="OUI"
    ),
    MAILLAGE=MESH,
)

# MATERIAU ELASTIQUE BI-LINEAIRE
MATER = DEFI_MATERIAU(ECRO_LINE=_F(D_SIGM_EPSI=EE / ratio, SY=sigma_max), ELAS=_F(E=EE, NU=poisson))

CHMAT = AFFE_MATERIAU(AFFE=_F(MATER=(MATER,), TOUT="OUI"), MODELE=MODE)

LIST = DEFI_LIST_REEL(
    DEBUT=0.0,
    INTERVALLE=(_F(JUSQU_A=1.0, NOMBRE=1), _F(JUSQU_A=2.0, NOMBRE=1), _F(JUSQU_A=3.0, NOMBRE=2)),
)

F_TRAC = DEFI_FONCTION(
    NOM_PARA="INST", VALE=(0.0, 0.0, 1.0, 0.7 * depl_max, 2.0, depl_max, 3.0, 3.0 * depl_max)
)

# CONDITIONS LIMITES
BLOC = AFFE_CHAR_CINE(MECA_IMPO=_F(DX=0.0, DY=0.0, GROUP_MA=("BAS",)), MODELE=MODE)

# CHARGEMENT
TRACTION = AFFE_CHAR_CINE(MECA_IMPO=(_F(DY=1.0, DX=1, GROUP_MA=("HAUT",)),), MODELE=MODE)

########################################################################
#                   RESOLUTION DU PROBLEME MECANIQUE                   #
########################################################################

RESU = STAT_NON_LINE(
    CHAM_MATER=CHMAT,
    COMPORTEMENT=_F(RELATION="ELAS_VMIS_LINE", TOUT="OUI"),
    EXCIT=(_F(CHARGE=BLOC), _F(CHARGE=TRACTION, FONC_MULT=F_TRAC)),
    INCREMENT=_F(LIST_INST=LIST, INST_FIN=1.0),
    MODELE=MODE,
)

########################################################################
#                           POST-TRAITEMENT                            #
########################################################################

# DEFINITION DU FRONT DE FISSURE
FISS = DEFI_FOND_FISS(
    CONFIG_INIT="COLLEE",
    FOND_FISS=_F(GROUP_NO=("FOND_FISS",)),
    LEVRE_SUP=_F(GROUP_MA=("LEVRE_SUP",)),
    LEVRE_INF=_F(GROUP_MA=("LEVRE_INF",)),
    MAILLAGE=MESH,
    SYME="NON",
)

# A PROXIMITE DE LA FISSURE, LES CARACTERISTIQUES MATERIAUX A UTILISER
# PAR POST_K1_K2_K3 NE SONT PAS CELLES DE L'ELASTICITE LINEAIRE
MATERINF = DEFI_MATERIAU(ELAS=_F(E=EE / ratio, NU=0.5 * (1.0 - 1.0 / ratio) + poisson / ratio))

# CALCUL DE G PAR POST_K1_K2_K3
T_FIC = POST_K1_K2_K3(
    ABSC_CURV_MAXI=4e-6, FOND_FISS=FISS, MATER=MATERINF, RESULTAT=RESU, TOUT_ORDRE="OUI", INFO=2
)


IMPR_TABLE(UNITE=6, TABLE=T_FIC)

# comparaison D_PLAN + BARSOUM
TEST_TABLE(
    CRITERE="RELATIF",
    REFERENCE="AUTRE_ASTER",
    VALE_REFE=1.36646e04,
    VALE_CALC=14798.868384403426,
    PRECISION=0.1,
    NOM_PARA="G",
    TABLE=T_FIC,
    FILTRE=(_F(NOM_PARA="INST", VALE=1.0),),
)

TEST_TABLE(
    CRITERE="RELATIF",
    REFERENCE="AUTRE_ASTER",
    PRECISION=0.05,
    VALE_REFE=2.99144e07,
    VALE_CALC=31125982.797060218,
    NOM_PARA="K1",
    TABLE=T_FIC,
    FILTRE=(_F(NOM_PARA="INST", VALE=1.0),),
)

TEST_TABLE(
    CRITERE="RELATIF",
    REFERENCE="AUTRE_ASTER",
    PRECISION=0.1,
    VALE_REFE=2.16579e06,
    VALE_CALC=2322363.169895185,
    NOM_PARA="K2",
    TABLE=T_FIC,
    FILTRE=(_F(NOM_PARA="INST", VALE=1.0),),
)

FIN()
