# coding=utf-8
# --------------------------------------------------------------------
# Copyright (C) 1991 - 2025 - EDF R&D - www.code-aster.org
# This file is part of code_aster.
#
# code_aster is free software: you can redistribute it and/or modify
# it under the terms of the GNU General Public License as published by
# the Free Software Foundation, either version 3 of the License, or
# (at your option) any later version.
#
# code_aster is distributed in the hope that it will be useful,
# but WITHOUT ANY WARRANTY; without even the implied warranty of
# MERCHANTABILITY or FITNESS FOR A PARTICULAR PURPOSE.  See the
# GNU General Public License for more details.
#
# You should have received a copy of the GNU General Public License
# along with code_aster.  If not, see <http://www.gnu.org/licenses/>.
# --------------------------------------------------------------------

#
# UTILISATION DE LA LOI VISCOPLASTIQUE DE NORTON
# ELEMENTS TRIA3 + SEG2 POUR LE CHARGEMENT
# .....................................................................

DEBUT(CODE="OUI", ERREUR=_F(ALARME="EXCEPTION"))

MAYA = LIRE_MAILLAGE(FORMAT="ASTER")

MAYA = DEFI_GROUP(reuse=MAYA, MAILLAGE=MAYA, CREA_GROUP_MA=_F(NOM="TOUT", TOUT="OUI"))

MODEL = AFFE_MODELE(
    MAILLAGE=MAYA, AFFE=_F(TOUT="OUI", PHENOMENE="MECANIQUE", MODELISATION="D_PLAN")
)

ACIER = DEFI_MATERIAU(
    ELAS=_F(E=178600.0, NU=0.3), LEMAITRE=_F(N=9.7, UN_SUR_K=0.00077519, UN_SUR_M=0.0)
)

MATER = AFFE_MATERIAU(MAILLAGE=MAYA, AFFE=_F(TOUT="OUI", MATER=ACIER))

TRAC_FO = DEFI_FONCTION(
    NOM_PARA="INST",
    VALE=(
        0.0,
        0.0,
        30.0,
        300.0,
        3630.0,
        300.0,
        3660.0,
        300.0,
        7260.0,
        300.0,
        7320.0,
        -300.0,
        7350.0,
        -300.0,
        10950.0,
        -300.0,
        10980.0,
        -300.0,
        11010.0,
        0.0,
    ),
    PROL_DROITE="EXCLU",
    PROL_GAUCHE="EXCLU",
)

CISA_FO = DEFI_FONCTION(
    NOM_PARA="INST",
    VALE=(
        0.0,
        0.0,
        30.0,
        0.0,
        3630.0,
        0.0,
        3660.0,
        300.0,
        7260.0,
        300.0,
        7320.0,
        300.0,
        7350.0,
        0.0,
        10950.0,
        0.0,
        10980.0,
        -300.0,
        11010.0,
        -300.0,
    ),
    PROL_DROITE="EXCLU",
    PROL_GAUCHE="EXCLU",
)

TRAC = AFFE_CHAR_MECA(MODELE=MODEL, FORCE_CONTOUR=_F(GROUP_MA="DROITE", FX=1.0))

CISA = AFFE_CHAR_MECA(MODELE=MODEL, FORCE_CONTOUR=_F(GROUP_MA="HAUT", FY=1.0))

CONDLIM = AFFE_CHAR_MECA(
    MODELE=MODEL,
    DDL_IMPO=(
        _F(GROUP_NO="NO1", DX=0.0, DY=0.0),
        _F(GROUP_NO="NO2", DY=0.0),
        _F(GROUP_NO="NO4", DX=0.0),
    ),
)


LINST0 = DEFI_LIST_REEL(
    DEBUT=0.0,
    INTERVALLE=(
        _F(JUSQU_A=30.0, NOMBRE=30),
        _F(JUSQU_A=3630.0, NOMBRE=10),
        _F(JUSQU_A=3660.0, NOMBRE=10),
        _F(JUSQU_A=7260.0, NOMBRE=10),
        _F(JUSQU_A=7320.0, NOMBRE=100),
        _F(JUSQU_A=7350.0, NOMBRE=20),
        _F(JUSQU_A=10950.0, NOMBRE=20),
        _F(JUSQU_A=10980.0, NOMBRE=20),
        _F(JUSQU_A=11010.0, NOMBRE=20),
    ),
)


listtps = DEFI_LIST_INST(DEFI_LIST=_F(LIST_INST=LINST0))

moyenne = FORMULE(VALE="0.5*abs(SIXX+SIYY)", NOM_PARA=["SIXX", "SIYY"])

CALCNL = STAT_NON_LINE(
    MODELE=MODEL,
    CHAM_MATER=MATER,
    EXCIT=(
        _F(CHARGE=CONDLIM),
        _F(CHARGE=TRAC, FONC_MULT=TRAC_FO),
        _F(CHARGE=CISA, FONC_MULT=CISA_FO),
    ),
    COMPORTEMENT=_F(
        RELATION="NORTON", DEFORMATION="PETIT", PARM_THETA=0.5, ALGO_INTE="NEWTON_PERT"
    ),
    INCREMENT=_F(LIST_INST=listtps),
    NEWTON=_F(REAC_ITER=1, PREDICTION="ELASTIQUE"),
    SUIVI_DDL=(
        _F(NOM_CMP="V1", NOM_CHAM="VARI_ELGA", TOUT="OUI", EVAL_ELGA="MAX", EVAL_CHAM="MAX"),
        _F(NOM_CMP="V2", NOM_CHAM="VARI_ELGA", TOUT="OUI", EVAL_ELGA="MAX", EVAL_CHAM="MAX"),
        _F(NOM_CMP="V7", NOM_CHAM="VARI_ELGA", TOUT="OUI", EVAL_ELGA="MAX", EVAL_CHAM="MAX"),
        _F(
            NOM_CMP=("SIXX", "SIYY"),
            NOM_CHAM="SIEF_ELGA",
            EVAL_ELGA="MAX",
            EVAL_CMP="FORMULE",
            FORMULE=moyenne,
            EVAL_CHAM="MAX",
            GROUP_MA="TOUT",
        ),
    ),
    ARCHIVAGE=_F(LIST_INST=LINST0),
)


CALCNL = CALC_CHAMP(reuse=CALCNL, RESULTAT=CALCNL, CONTRAINTE="SIGM_ELNO", VARI_INTERNE="VARI_ELNO")

CALCNL = CALC_CHAMP(reuse=CALCNL, RESULTAT=CALCNL, DEFORMATION="EPSP_ELGA")

TEST_RESU(
    RESU=(
        _F(
            NUME_ORDRE=30,
            POINT=1,
            RESULTAT=CALCNL,
            NOM_CHAM="EPSP_ELGA",
            NOM_CMP="EPXX",
            VALE_CALC=6.0940390736171e-07,
            VALE_REFE=6.125e-07,
            REFERENCE="AUTRE_ASTER",
            CRITERE="RELATIF",
            PRECISION=0.006,
            GROUP_MA="MA1",
        ),
        _F(
            NUME_ORDRE=30,
            POINT=1,
            RESULTAT=CALCNL,
            NOM_CHAM="EPSP_ELGA",
            NOM_CMP="EPYY",
            VALE_CALC=-4.6604312746456e-07,
            VALE_REFE=-4.6839999999999999e-07,
            REFERENCE="AUTRE_ASTER",
            CRITERE="RELATIF",
            PRECISION=0.006,
            GROUP_MA="MA1",
        ),
        _F(
            NUME_ORDRE=40,
            POINT=1,
            RESULTAT=CALCNL,
            NOM_CHAM="EPSP_ELGA",
            NOM_CMP="EPXX",
            VALE_CALC=7.05666823e-04,
            VALE_REFE=7.0560000000000002e-4,
            REFERENCE="AUTRE_ASTER",
            CRITERE="RELATIF",
            PRECISION=0.0001,
            GROUP_MA="MA1",
        ),
        _F(
            NUME_ORDRE=40,
            POINT=1,
            RESULTAT=CALCNL,
            NOM_CHAM="EPSP_ELGA",
            NOM_CMP="EPYY",
            VALE_CALC=-5.72018771e-04,
            VALE_REFE=-5.7200000000000003e-4,
            REFERENCE="AUTRE_ASTER",
            CRITERE="RELATIF",
            PRECISION=0.00004,
            GROUP_MA="MA1",
        ),
        _F(
            NUME_ORDRE=50,
            POINT=1,
            RESULTAT=CALCNL,
            NOM_CHAM="EPSP_ELGA",
            NOM_CMP="EPXX",
            VALE_CALC=7.06197534e-04,
            VALE_REFE=7.0609999999999998e-4,
            REFERENCE="AUTRE_ASTER",
            CRITERE="RELATIF",
            PRECISION=0.0002,
            GROUP_MA="MA1",
        ),
        _F(
            NUME_ORDRE=50,
            POINT=1,
            RESULTAT=CALCNL,
            NOM_CHAM="EPSP_ELGA",
            NOM_CMP="EPYY",
            VALE_CALC=-5.72447200e-04,
            VALE_REFE=-5.7240000000000004e-4,
            REFERENCE="AUTRE_ASTER",
            CRITERE="RELATIF",
            PRECISION=0.0001,
            GROUP_MA="MA1",
        ),
        _F(
            NUME_ORDRE=60,
            POINT=1,
            RESULTAT=CALCNL,
            NOM_CHAM="EPSP_ELGA",
            NOM_CMP="EPXX",
            VALE_CALC=7.0619703442114e-04,
            VALE_REFE=7.0609999999999998e-4,
            REFERENCE="AUTRE_ASTER",
            CRITERE="RELATIF",
            PRECISION=0.002,
            GROUP_MA="MA1",
        ),
        _F(
            NUME_ORDRE=60,
            POINT=1,
            RESULTAT=CALCNL,
            NOM_CHAM="EPSP_ELGA",
            NOM_CMP="EPYY",
            VALE_CALC=-5.7244699568814e-04,
            VALE_REFE=-5.7240000000000004e-4,
            REFERENCE="AUTRE_ASTER",
            CRITERE="RELATIF",
            PRECISION=0.001,
            GROUP_MA="MA1",
        ),
        _F(
            NUME_ORDRE=160,
            POINT=1,
            RESULTAT=CALCNL,
            NOM_CHAM="EPSP_ELGA",
            NOM_CMP="EPXX",
            VALE_CALC=-2.4024399858031e-05,
            VALE_REFE=-2.4430000000000002e-05,
            REFERENCE="AUTRE_ASTER",
            CRITERE="RELATIF",
            PRECISION=0.02,
            GROUP_MA="MA1",
        ),
        _F(
            NUME_ORDRE=160,
            POINT=1,
            RESULTAT=CALCNL,
            NOM_CHAM="EPSP_ELGA",
            NOM_CMP="EPYY",
            VALE_CALC=1.3736325742026e-04,
            VALE_REFE=1.3770000000000001e-4,
            REFERENCE="AUTRE_ASTER",
            CRITERE="RELATIF",
            PRECISION=0.003,
            GROUP_MA="MA1",
        ),
        _F(
            NUME_ORDRE=180,
            POINT=1,
            RESULTAT=CALCNL,
            NOM_CHAM="EPSP_ELGA",
            NOM_CMP="EPXX",
            VALE_CALC=-7.7654135659409e-04,
            VALE_REFE=-7.7879999999999996e-4,
            REFERENCE="AUTRE_ASTER",
            CRITERE="RELATIF",
            PRECISION=0.003,
            GROUP_MA="MA1",
        ),
        _F(
            NUME_ORDRE=180,
            POINT=1,
            RESULTAT=CALCNL,
            NOM_CHAM="EPSP_ELGA",
            NOM_CMP="EPYY",
            VALE_CALC=8.4011656785583e-04,
            VALE_REFE=8.4230000000000004e-4,
            REFERENCE="AUTRE_ASTER",
            CRITERE="RELATIF",
            PRECISION=0.003,
            GROUP_MA="MA1",
        ),
        _F(
            NUME_ORDRE=240,
            POINT=1,
            RESULTAT=CALCNL,
            NOM_CHAM="EPSP_ELGA",
            NOM_CMP="EPXX",
            VALE_CALC=-1.5321473898156e-03,
            VALE_REFE=-1.534e-3,
            REFERENCE="AUTRE_ASTER",
            CRITERE="RELATIF",
            PRECISION=0.002,
            GROUP_MA="MA1",
        ),
        _F(
            NUME_ORDRE=240,
            POINT=1,
            RESULTAT=CALCNL,
            NOM_CHAM="EPSP_ELGA",
            NOM_CMP="EPYY",
            VALE_CALC=1.4301526013007e-03,
            VALE_REFE=1.4319999999999999e-3,
            REFERENCE="AUTRE_ASTER",
            CRITERE="RELATIF",
            PRECISION=0.002,
            GROUP_MA="MA1",
        ),
    )
)


F_EPXX = RECU_FONCTION(RESULTAT=CALCNL, NOM_CHAM="VARI_ELGA", NOM_CMP="V1", GROUP_MA="MA1", POINT=1)


F_EPYY = RECU_FONCTION(RESULTAT=CALCNL, NOM_CHAM="VARI_ELGA", NOM_CMP="V2", GROUP_MA="MA1", POINT=1)


IMPR_FONCTION(
    FORMAT="XMGRACE",
    UNITE=38,
    # PILOTE='INTERACTIF',
    COURBE=(_F(FONCTION=F_EPXX), _F(FONCTION=F_EPYY)),
)

FIN()
