# coding=utf-8
# --------------------------------------------------------------------
# Copyright (C) 1991 - 2025 - EDF R&D - www.code-aster.org
# This file is part of code_aster.
#
# code_aster is free software: you can redistribute it and/or modify
# it under the terms of the GNU General Public License as published by
# the Free Software Foundation, either version 3 of the License, or
# (at your option) any later version.
#
# code_aster is distributed in the hope that it will be useful,
# but WITHOUT ANY WARRANTY; without even the implied warranty of
# MERCHANTABILITY or FITNESS FOR A PARTICULAR PURPOSE.  See the
# GNU General Public License for more details.
#
# You should have received a copy of the GNU General Public License
# along with code_aster.  If not, see <http://www.gnu.org/licenses/>.
# --------------------------------------------------------------------

DEBUT(CODE="OUI", DEBUG=_F(SDVERI="OUI"))

rho_1 = 1700

c_1 = 4e3

phi_1 = 20

rho_2 = 1800

c_2 = 8e3

phi_2 = 25

rho_w = 1e3

g = 9.81

mesh = LIRE_MAILLAGE(UNITE=20)

MODE1 = AFFE_MODELE(
    MAILLAGE=mesh, AFFE=_F(TOUT="OUI", PHENOMENE="MECANIQUE", MODELISATION="D_PLAN")
)

mat1 = DEFI_MATERIAU(
    ELAS=_F(ALPHA=0.0, E=1e8, NU=0.3, RHO=rho_1),
    MOHR_COULOMB=_F(ANGDIL=phi_1, PHI=phi_1, COHESION=c_1),
)

mat2 = DEFI_MATERIAU(
    ELAS=_F(ALPHA=0.0, E=1e8, NU=0.3, RHO=rho_2),
    MOHR_COULOMB=_F(ANGDIL=phi_2, PHI=phi_2, COHESION=c_2),
)

CHMAT = AFFE_MATERIAU(
    MAILLAGE=mesh, AFFE=(_F(MATER=mat1, GROUP_MA="upper"), _F(MATER=mat2, GROUP_MA="lower"))
)

PIEZO_1 = CREA_TABLE(
    LISTE=(_F(LISTE_R=[0.0, 27.8, 40.0], PARA="COOR_X"), _F(LISTE_R=[7.0, 5.2, 5.2], PARA="HEAD"))
)

PIEZO_2 = CREA_TABLE(
    LISTE=(_F(LISTE_R=[0.0, 20.0], PARA="COOR_X"), _F(LISTE_R=[12.0, 9.0], PARA="HEAD"))
)

f_pres = DEFI_FONCTION(
    VALE=(0.0, rho_w * g * 5.2, 5.2, 0.0),
    NOM_PARA="Y",
    PROL_DROITE="CONSTANT",
    PROL_GAUCHE="CONSTANT",
)

RESTAB = CALC_STAB_PENTE(
    CHAM_MATER=CHMAT,
    METHODE_STAB="LEM",
    METHODE_LEM="BISHOP",
    GROUP_MA="range_pente",
    NB_TRANCHE=15,
    NB_RAYON=15,
    SUCCION="OUI",
    PHI_B=(_F(GROUP_MA="lower", VALE=10.0), _F(GROUP_MA="upper", VALE=5.0)),
    LIGN_PHREA=(
        _F(INDIC_PIEZO=[1, 2], TABLE=PIEZO_1, GROUP_MA="lower"),
        _F(INDIC_PIEZO=[1, 2], TABLE=PIEZO_2, GROUP_MA="upper"),
    ),
    FONC_PRES=f_pres,
    RAFF_MAIL=_F(NB_RAFF_MAXI=4, RAFF_CRIT_STAB=1e-3),
    X1_MINI=7.6,
    X1_MAXI=7.6,
    X2_MINI=30.8,
    X2_MAXI=30.8,
    NB_POINT_1=1,
    NB_POINT_2=1,
    INFO_TABLE=2,
)

# TEST DE NON_REGRESSION
TEST_TABLE(
    FILTRE=_F(NOM_PARA="NUME_RAFF", VALE_I=0),
    NOM_PARA="FS",
    TABLE=RESTAB,
    VALE_CALC=(1.362963182816192,),
)

TEST_TABLE(NOM_PARA="NB_SURF_TEST", VALE_CALC_I=21, TABLE=RESTAB)

# VALIDATION
TEST_TABLE(
    NOM_PARA="CENTRE_X",
    VALE_CALC=25.644720019630114,
    VALE_REFE=25.497967,
    REFERENCE="SOURCE_EXTERNE",
    PRECISION=5e-2,
    TABLE=RESTAB,
)

TEST_TABLE(
    NOM_PARA="CENTRE_Y",
    VALE_CALC=23.951750445541865,
    VALE_REFE=23.611283,
    REFERENCE="SOURCE_EXTERNE",
    PRECISION=5e-2,
    TABLE=RESTAB,
)
TEST_TABLE(
    NOM_PARA="RAYON",
    VALE_CALC=20.607019617527968,
    VALE_REFE=20.315,
    REFERENCE="SOURCE_EXTERNE",
    PRECISION=5e-2,
    TABLE=RESTAB,
)
TEST_TABLE(
    FILTRE=_F(NOM_PARA="NUME_RAFF", VALE_I=4),
    NOM_PARA="FS",
    TABLE=RESTAB,
    VALE_CALC=(1.3810403936575162,),
    VALE_REFE=(1.418),
    REFERENCE="SOURCE_EXTERNE",
    PRECISION=5e-2,
)


FIN()
