# coding=utf-8
# --------------------------------------------------------------------
# Copyright (C) 1991 - 2025 - EDF R&D - www.code-aster.org
# This file is part of code_aster.
#
# code_aster is free software: you can redistribute it and/or modify
# it under the terms of the GNU General Public License as published by
# the Free Software Foundation, either version 3 of the License, or
# (at your option) any later version.
#
# code_aster is distributed in the hope that it will be useful,
# but WITHOUT ANY WARRANTY; without even the implied warranty of
# MERCHANTABILITY or FITNESS FOR A PARTICULAR PURPOSE.  See the
# GNU General Public License for more details.
#
# You should have received a copy of the GNU General Public License
# along with code_aster.  If not, see <http://www.gnu.org/licenses/>.
# --------------------------------------------------------------------

########################################################################
#          TEST DE VERIFICATION EN PLASTICITE INCOMPRESSIBLE           #
#                       MEMBRANE DE COOK                               #
########################################################################

DEBUT(CODE="OUI", ERREUR=_F(ALARME="EXCEPTION"), DEBUG=_F(SDVERI="OUI"))


mesh0 = LIRE_MAILLAGE(FORMAT="MED")

mesh = CREA_MAILLAGE(MAILLAGE=mesh0, MODI_HHO=_F(TOUT="OUI"))

E = 70
SY = 0.243
mater = DEFI_MATERIAU(
    ECRO_LINE=_F(D_SIGM_EPSI=0.13474, SY=SY), ELAS=_F(E=E, NU=0.4999), HHO=_F(COEF_STAB=100 * E)
)

fieldmat = AFFE_MATERIAU(AFFE=_F(MATER=(mater,), TOUT="OUI"), MAILLAGE=mesh)

rampe = DEFI_FONCTION(
    NOM_PARA="INST", VALE=(0.0, 0.0, 1.0, 1.0), PROL_DROITE="LINEAIRE", PROL_GAUCHE="EXCLU"
)

listr = DEFI_LIST_REEL(
    DEBUT=0.0,
    INTERVALLE=(
        _F(JUSQU_A=0.4, NOMBRE=1),
        _F(JUSQU_A=0.8, NOMBRE=4),
        _F(JUSQU_A=0.95, NOMBRE=6),
        _F(JUSQU_A=1.0, NOMBRE=4),
    ),
)

times = DEFI_LIST_INST(
    DEFI_LIST=_F(LIST_INST=listr), ECHEC=_F(ACTION="DECOUPE", EVENEMENT="ERREUR", SUBD_NIVEAU=4)
)

AY = [2.1414234994454913]
AX = [-1.6217044475881104]
AT = [-0.10622633433508269]
CY = [0.3535826785266773]
CX = [-0.03018432476813562]
CT = [0.41801968468318235]


model = AFFE_MODELE(
    AFFE=_F(
        MODELISATION="D_PLAN_HHO", FORMULATION="QUADRATIQUE", PHENOMENE="MECANIQUE", TOUT="OUI"
    ),
    MAILLAGE=mesh,
)

depl = AFFE_CHAR_CINE(MECA_IMPO=_F(DX=0.0, DY=0.0, GROUP_MA=("Encast",)), MODELE=model, INFO=1)

load = AFFE_CHAR_MECA(FORCE_CONTOUR=_F(FY=0.1125, GROUP_MA=("load",)), MODELE=model)

resnonl = STAT_NON_LINE(
    CHAM_MATER=fieldmat,
    COMPORTEMENT=_F(DEFORMATION="PETIT", RELATION="VMIS_ISOT_LINE", TOUT="OUI"),
    CONVERGENCE=_F(ITER_GLOB_MAXI=10, RESI_REFE_RELA=1.0e-6, SIGM_REFE=SY),
    EXCIT=(
        _F(CHARGE=depl, TYPE_CHARGE="FIXE_CSTE"),
        _F(CHARGE=load, FONC_MULT=rampe, TYPE_CHARGE="FIXE_CSTE"),
    ),
    INCREMENT=_F(LIST_INST=times),
    MODELE=model,
    NEWTON=_F(MATRICE="TANGENTE", PREDICTION="TANGENTE", REAC_ITER=1),
    SOLVEUR=_F(METHODE="MUMPS"),
    INFO=1,
)

resnonl = CALC_CHAMP(
    reuse=resnonl,
    CHAM_MATER=fieldmat,
    CRITERES=("SIEQ_NOEU",),
    DEFORMATION=("EPSI_ELGA",),
    MODELE=model,
    RESULTAT=resnonl,
)
rescoor = CALC_CHAM_ELEM(MODELE=model, OPTION="COOR_ELGA")

IMPR_RESU(UNITE=80, RESU=_F(RESULTAT=resnonl, IMPR_NOM_VARI="OUI"), FORMAT="MED")

TEST_RESU(
    RESU=_F(
        INST=1.0,
        GROUP_NO=("A",),
        REFERENCE="AUTRE_ASTER",
        RESULTAT=resnonl,
        NOM_CHAM="HHO_DEPL",
        NOM_CMP="DY",
        VALE_CALC=AY,
        VALE_REFE=2.13651,
        CRITERE="RELATIF",
        PRECISION=3.0e-2,
    )
)

TEST_RESU(
    RESU=_F(
        INST=1.0,
        GROUP_NO=("A",),
        REFERENCE="AUTRE_ASTER",
        RESULTAT=resnonl,
        NOM_CHAM="HHO_DEPL",
        NOM_CMP="DX",
        VALE_CALC=AX,
        VALE_REFE=-1.61818,
        CRITERE="RELATIF",
        PRECISION=4.0e-2,
    )
)

TEST_RESU(
    RESU=_F(
        INST=1.0,
        GROUP_NO=("A",),
        RESULTAT=resnonl,
        NOM_CHAM="SIEQ_NOEU",
        NOM_CMP="TRSIG",
        VALE_CALC=AT,
        CRITERE="RELATIF",
    )
)

TEST_RESU(
    RESU=_F(
        INST=1.0,
        GROUP_NO=("C",),
        RESULTAT=resnonl,
        NOM_CHAM="HHO_DEPL",
        NOM_CMP="DY",
        VALE_CALC=CY,
        CRITERE="RELATIF",
    )
)

TEST_RESU(
    RESU=_F(
        INST=1.0,
        GROUP_NO=("C",),
        RESULTAT=resnonl,
        NOM_CHAM="HHO_DEPL",
        NOM_CMP="DX",
        VALE_CALC=CX,
        CRITERE="RELATIF",
    )
)

TEST_RESU(
    RESU=_F(
        INST=1.0,
        GROUP_NO=("C",),
        RESULTAT=resnonl,
        NOM_CHAM="SIEQ_NOEU",
        NOM_CMP="TRSIG",
        VALE_CALC=CT,
        CRITERE="RELATIF",
    )
)


TEST_RESU(
    RESU=_F(
        INST=1.0,
        GROUP_MA=("M200"),
        POINT=1,
        RESULTAT=resnonl,
        NOM_CHAM="EPSI_ELGA",
        NOM_CMP="EPXY",
        VALE_CALC=0.02888659554547817,
        CRITERE="RELATIF",
    )
)


TEST_RESU(
    CHAM_ELEM=_F(
        POINT=1, NOM_CMP="X", GROUP_MA="M200", CHAM_GD=rescoor, VALE_CALC=26.72527135947069
    )
)

FIN()
