# coding=utf-8
# --------------------------------------------------------------------
# Copyright (C) 1991 - 2025 - EDF R&D - www.code-aster.org
# This file is part of code_aster.
#
# code_aster is free software: you can redistribute it and/or modify
# it under the terms of the GNU General Public License as published by
# the Free Software Foundation, either version 3 of the License, or
# (at your option) any later version.
#
# code_aster is distributed in the hope that it will be useful,
# but WITHOUT ANY WARRANTY; without even the implied warranty of
# MERCHANTABILITY or FITNESS FOR A PARTICULAR PURPOSE.  See the
# GNU General Public License for more details.
#
# You should have received a copy of the GNU General Public License
# along with code_aster.  If not, see <http://www.gnu.org/licenses/>.
# --------------------------------------------------------------------

#
# ESSAI TRACTION UNE MAILLE QUAD8
# MODELISATION D_PLAN SI

DEBUT(CODE="OUI", ERREUR=_F(ALARME="EXCEPTION"), DEBUG=_F(SDVERI="OUI"))

MAIL = LIRE_MAILLAGE(FORMAT="ASTER")

MAIL = DEFI_GROUP(
    reuse=MAIL, MAILLAGE=MAIL, CREA_GROUP_NO=_F(GROUP_MA=("L14", "L43", "L32", "L21"))
)

MOD_MECA = AFFE_MODELE(
    AFFE=(
        _F(TOUT="OUI", PHENOMENE="MECANIQUE", MODELISATION=("D_PLAN",)),
        _F(TOUT="OUI", PHENOMENE="MECANIQUE", MODELISATION=("D_PLAN_SI")),
    ),
    MAILLAGE=MAIL,
)


ECR = DEFI_FONCTION(
    PROL_GAUCHE="LINEAIRE",
    NOM_PARA="EPSI",
    VALE=(
        0.0001,
        27.3,
        0.00338,
        222.72,
        0.03,
        519.58,
        0.04,
        580.94,
        0.05,
        633.48,
        0.07,
        721.82,
        0.1,
        828.96,
        0.15,
        970.19,
        0.2,
        1084.75,
        0.3,
        1269.57,
# ... 12 like lines cut
    ),
    PROL_DROITE="LINEAIRE",
)

# modèle de Maxwell repose sur deux paramètres

# rigidité k (Pa) : rigidité apparente (k+écrouissage négatif) soit toujours positive
# si k pas assez grand, on peut se trouver dans la situation où il n'y aurait pas de solution
k = 2.0e5
# temps caractéristique tau (s) : il faut estimer la vitesse de déformation. tau doit être
# petit (1 à 10 %) devant le temps pour traverser le domaine élastique à cette vitesse.
# sigma_elas = 27 MPa, E=2.e5 MPa => epsi_elas = 27/2.e5 = 1.35e-4
# l_init = 10mm => l_elas = 1.35e-4 * 10 =1.35e-3 mm
# dep_imposé = 10 mm pendant 10s => 10% de l_elas => 1.35e-4 s
tau = 1.0e-4


ACIER_V = DEFI_MATERIAU(
    ELAS=_F(NU=0.3, E=273000),
    ROUSSELIER=_F(
        PORO_INIT=1.0e-4, D_SIGM_EPSI_NORM=1.0, PORO_CRIT=1.0, D=2.0, SIGM_1=600.0, PORO_ACCE=1.0
    ),
    VISC_SINH=_F(SIGM_0=27.0, EPSI_0=1.0e-2, M=2.0),
    VISC_ELAS=_F(K=k, TAU=tau),
    TRACTION=_F(SIGM=ECR),
)


CHMAT_V = AFFE_MATERIAU(AFFE=_F(MATER=ACIER_V, TOUT="OUI"), MAILLAGE=MAIL)

DY_T = DEFI_FONCTION(
    PROL_GAUCHE="CONSTANT", NOM_PARA="INST", VALE=(0.0, 0.0, 10.0, 10.0), PROL_DROITE="CONSTANT"
)


LINST = DEFI_LIST_REEL(
    INTERVALLE=(_F(JUSQU_A=1.0, NOMBRE=4), _F(JUSQU_A=5.0, NOMBRE=40), _F(JUSQU_A=10.0, NOMBRE=40)),
    DEBUT=0.0,
)


DEFLIST = DEFI_LIST_INST(
    DEFI_LIST=_F(LIST_INST=LINST),
    ECHEC=_F(ACTION="DECOUPE", SUBD_METHODE="MANUEL", SUBD_PAS=4, SUBD_PAS_MINI=1.0e-06),
)


LINSTVV = DEFI_LIST_REEL(
    INTERVALLE=(
        _F(JUSQU_A=0.0001, NOMBRE=2),
        _F(JUSQU_A=1.0, NOMBRE=1),
        _F(JUSQU_A=5.0, NOMBRE=80),
        _F(JUSQU_A=10.0, NOMBRE=80),
    ),
    DEBUT=0.0,
)


DEFLISTVV = DEFI_LIST_INST(
    DEFI_LIST=_F(LIST_INST=LINSTVV),
    ECHEC=_F(ACTION="DECOUPE", SUBD_METHODE="MANUEL", SUBD_PAS=4, SUBD_PAS_MINI=1.0e-06),
)

COND_LIM = AFFE_CHAR_MECA(
    MODELE=MOD_MECA, DDL_IMPO=(_F(DX=0.0, GROUP_NO="L21"), _F(DY=0.0, GROUP_NO="L14"))
)

CHAR = AFFE_CHAR_MECA_F(MODELE=MOD_MECA, DDL_IMPO=_F(DY=DY_T, GROUP_NO="L32"))


# avec REGU_VISC
RESU_VV = STAT_NON_LINE(
    CHAM_MATER=CHMAT_V,
    MODELE=MOD_MECA,
    SOLVEUR=_F(METHODE="MULT_FRONT"),
    CONVERGENCE=_F(ITER_GLOB_MAXI=30, RESI_GLOB_MAXI=1.0e-06),
    COMPORTEMENT=_F(
        TOUT="OUI",
        PARM_THETA=0.57,
        ITER_INTE_MAXI=400,
        ITER_INTE_PAS=-90,
        RELATION="ROUSS_VISC",
        REGU_VISC="OUI",
        DEFORMATION="PETIT_REAC",
    ),
    INCREMENT=_F(LIST_INST=DEFLISTVV),
    RECH_LINEAIRE=_F(ITER_LINE_MAXI=3),
    NEWTON=_F(REAC_ITER=1, MATRICE="ELASTIQUE", REAC_INCR=1),
    EXCIT=(_F(CHARGE=COND_LIM), _F(CHARGE=CHAR)),
)


# avec REGU_VISC
TEST_RESU(
    RESU=_F(
        INST=10.0,
        POINT=1,
        RESULTAT=RESU_VV,
        NOM_CHAM="VARI_ELGA",
        NOM_CMP="V2",
        VALE_CALC=0.0333521964551,
        TOLE_MACHINE=(4.0e-3, 1.0e-4),  # pour VALE_CALC, puis INST
        GROUP_MA="M1",
    )
)

FIN()
