# coding=utf-8
# --------------------------------------------------------------------
# Copyright (C) 1991 - 2025 - EDF R&D - www.code-aster.org
# This file is part of code_aster.
#
# code_aster is free software: you can redistribute it and/or modify
# it under the terms of the GNU General Public License as published by
# the Free Software Foundation, either version 3 of the License, or
# (at your option) any later version.
#
# code_aster is distributed in the hope that it will be useful,
# but WITHOUT ANY WARRANTY; without even the implied warranty of
# MERCHANTABILITY or FITNESS FOR A PARTICULAR PURPOSE.  See the
# GNU General Public License for more details.
#
# You should have received a copy of the GNU General Public License
# along with code_aster.  If not, see <http://www.gnu.org/licenses/>.
# --------------------------------------------------------------------

########################################################################
#          TEST DE VERIFICATION EN PLASTICITE INCOMPRESSIBLE           #
#                       MEMBRANE DE COOK                               #
########################################################################

DEBUT(CODE="OUI", DEBUG=_F(SDVERI="OUI"))


mesh0 = LIRE_MAILLAGE(FORMAT="MED")

mesh = CREA_MAILLAGE(MAILLAGE=mesh0, MODI_HHO=_F(TOUT="OUI"))

mesh = MODI_MAILLAGE(reuse=mesh, MAILLAGE=mesh, ORIE_PEAU=_F(GROUP_MA_PEAU=("Encast", "load")))

# Replace traction curve by curve fitting (use python script for that)
# python3 ssnp179k.21 -fi ssnp179a.21
# ctrac = LIRE_FONCTION(UNITE=21, NOM_PARA="EPSI", PROL_DROITE="LINEAIRE")

E = 206.9
R0 = 0.495902
L = 1.0
mater = DEFI_MATERIAU(
    ECRO_NL=_F(
        R0=R0,
        RH=0.128791,
        R1=-5.954458,
        GAMMA_1=14.232798,
        R2=6.173697,
        GAMMA_2=14.353183,
        RK=-24.305989,
        P0=1.449898,
        GAMMA_M=-16.879502,
    ),
    ELAS=_F(E=E, NU=0.29),
    NON_LOCAL=_F(C_GRAD_VARI=R0 * (L / 5.0) ** 2, PENA_LAGR=R0),
)

fieldmat = AFFE_MATERIAU(AFFE=_F(MATER=(mater,), TOUT="OUI"), MAILLAGE=mesh)

rampe = DEFI_FONCTION(
    NOM_PARA="INST", VALE=(0.0, 0.0, 1.0, 1.0), PROL_DROITE="LINEAIRE", PROL_GAUCHE="EXCLU"
)

listr = DEFI_LIST_REEL(
    DEBUT=0.0,
    INTERVALLE=(
        _F(JUSQU_A=0.1, NOMBRE=1),
        _F(JUSQU_A=0.5, NOMBRE=3),
        _F(JUSQU_A=0.8, NOMBRE=4),
        _F(JUSQU_A=1.0, NOMBRE=4),
    ),
)

times = DEFI_LIST_INST(
    DEFI_LIST=_F(LIST_INST=listr), ECHEC=_F(ACTION="DECOUPE", EVENEMENT="ERREUR", SUBD_NIVEAU=4)
)

FY = FORMULE(NOM_PARA=("X", "Y", "INST"), VALE="0.3125")

model = AFFE_MODELE(
    AFFE=_F(
        MODELISATION="D_PLAN_GRAD_HHO", FORMULATION="QUADRATIQUE", PHENOMENE="MECANIQUE", TOUT="OUI"
    ),
    MAILLAGE=mesh,
)

depl = AFFE_CHAR_CINE(MECA_IMPO=_F(DX=0.0, DY=0.0, GROUP_MA=("Encast",)), MODELE=model, INFO=1)

load = AFFE_CHAR_MECA_F(FORCE_CONTOUR=_F(FY=FY, GROUP_MA=("load",)), MODELE=model)

UN = FORMULE(NOM_PARA=("X", "Y", "Z"), VALE="1.0")
FX_R = AFFE_CHAR_MECA(MODELE=model, FORCE_INTERNE=_F(TOUT="OUI", FX=-1.0))
FX_F = AFFE_CHAR_MECA_F(MODELE=model, FORCE_INTERNE=_F(TOUT="OUI", FX=UN))


resnonl = STAT_NON_LINE(
    CHAM_MATER=fieldmat,
    COMPORTEMENT=_F(DEFORMATION="GDEF_LOG", RELATION="VMIS_ISOT_NL", TOUT="OUI"),
    CONVERGENCE=_F(ITER_GLOB_MAXI=10, RESI_GLOB_RELA=1e-6),
    EXCIT=(
        _F(CHARGE=depl, TYPE_CHARGE="FIXE_CSTE"),
        _F(CHARGE=load, FONC_MULT=rampe, TYPE_CHARGE="FIXE_CSTE"),
        _F(CHARGE=FX_R, FONC_MULT=rampe, TYPE_CHARGE="FIXE_CSTE"),
        _F(CHARGE=FX_F, FONC_MULT=rampe, TYPE_CHARGE="FIXE_CSTE"),
    ),
    INCREMENT=_F(LIST_INST=times),
    MODELE=model,
    NEWTON=_F(MATRICE="TANGENTE", PREDICTION="TANGENTE", REAC_ITER=1),
    SOLVEUR=_F(METHODE="MUMPS"),
    INFO=1,
)

resnonl = CALC_CHAMP(
    reuse=resnonl, CHAM_MATER=fieldmat, CRITERES=("SIEQ_NOEU",), MODELE=model, RESULTAT=resnonl
)

TEST_RESU(
    RESU=_F(
        INST=1.0,
        GROUP_NO=("A",),
        REFERENCE="AUTRE_ASTER",
        RESULTAT=resnonl,
        NOM_CHAM="HHO_DEPL",
        NOM_CMP="DY",
        VALE_CALC=6.959284644989878,
        VALE_REFE=7.00031,
        CRITERE="RELATIF",
        PRECISION=2.0e-2,
    )
)

TEST_RESU(
    RESU=_F(
        INST=1.0,
        GROUP_NO=("A",),
        REFERENCE="AUTRE_ASTER",
        RESULTAT=resnonl,
        NOM_CHAM="HHO_DEPL",
        NOM_CMP="DX",
        VALE_CALC=-6.20435067157568,
        VALE_REFE=-6.23907,
        CRITERE="RELATIF",
        PRECISION=3.0e-2,
    )
)

TEST_RESU(
    RESU=_F(
        INST=1.0,
        GROUP_NO=("A",),
        RESULTAT=resnonl,
        NOM_CHAM="HHO_DEPL",
        NOM_CMP="VARI",
        VALE_CALC=0.0019923517654500704,
        CRITERE="RELATIF",
    )
)

TEST_RESU(
    RESU=_F(
        INST=1.0,
        GROUP_NO=("A",),
        RESULTAT=resnonl,
        NOM_CHAM="HHO_DEPL",
        NOM_CMP="LAG_GV",
        VALE_CALC=-7.766322656663899e-06,
        CRITERE="RELATIF",
    )
)

TEST_RESU(
    RESU=_F(
        INST=1.0,
        GROUP_NO=("A",),
        RESULTAT=resnonl,
        NOM_CHAM="SIEQ_NOEU",
        NOM_CMP="TRSIG",
        VALE_CALC=-0.1460400571407654,
        CRITERE="RELATIF",
    )
)


TEST_RESU(
    RESU=_F(
        INST=1.0,
        GROUP_NO=("C",),
        RESULTAT=resnonl,
        NOM_CHAM="HHO_DEPL",
        NOM_CMP="DY",
        VALE_CALC=1.4341971481893803,
        CRITERE="RELATIF",
    )
)

TEST_RESU(
    RESU=_F(
        INST=1.0,
        GROUP_NO=("C",),
        RESULTAT=resnonl,
        NOM_CHAM="HHO_DEPL",
        NOM_CMP="DX",
        VALE_CALC=-0.18497517273157932,
        CRITERE="RELATIF",
    )
)

TEST_RESU(
    RESU=_F(
        INST=1.0,
        GROUP_NO=("C",),
        RESULTAT=resnonl,
        NOM_CHAM="SIEQ_NOEU",
        NOM_CMP="TRSIG",
        VALE_CALC=0.8138409642197674,
        CRITERE="RELATIF",
    )
)


FIN()
