# coding=utf-8
# --------------------------------------------------------------------
# Copyright (C) 1991 - 2025 - EDF R&D - www.code-aster.org
# This file is part of code_aster.
#
# code_aster is free software: you can redistribute it and/or modify
# it under the terms of the GNU General Public License as published by
# the Free Software Foundation, either version 3 of the License, or
# (at your option) any later version.
#
# code_aster is distributed in the hope that it will be useful,
# but WITHOUT ANY WARRANTY; without even the implied warranty of
# MERCHANTABILITY or FITNESS FOR A PARTICULAR PURPOSE.  See the
# GNU General Public License for more details.
#
# You should have received a copy of the GNU General Public License
# along with code_aster.  If not, see <http://www.gnu.org/licenses/>.
# --------------------------------------------------------------------
DEBUT(CODE="OUI", DEBUG=_F(SDVERI="OUI"))

MAIL = LIRE_MAILLAGE(FORMAT="MED", UNITE=20)

MAIL = MODI_MAILLAGE(reuse=MAIL, MAILLAGE=MAIL, ORIE_PEAU=_F(GROUP_MA_PEAU="SURF_DER"))

behaviour = CREA_LIB_MFRONT(NOM_COMPOR="Signorini", UNITE_MFRONT=38)


# MATERIAU HYPERELASTIQUE: MOONEY-RIVLIN
C01 = 2.3456
C10 = 0.709
C20 = 0.0
NU = 0.499
K = (6 * (C10 + C01)) / (3 * (1 - 2 * NU))

RUBBER1 = DEFI_MATERIAU(
    ELAS_HYPER=_F(C10=C10, C01=C01, C20=C20, K=K, RHO=1000.0),
    MFRONT=_F(LISTE_COEF=(C01, C10, C20, K)),
)


CHMAT1 = AFFE_MATERIAU(MAILLAGE=MAIL, AFFE=_F(TOUT="OUI", MATER=RUBBER1))


# MATERIAU HYPERELASTIQUE: NEO-HOOKEEN
C01 = 0.0
C10 = 1.2345
C20 = 0.0
NU = 0.499
K = (6 * (C10 + C01)) / (3 * (1 - 2 * NU))


RUBBER2 = DEFI_MATERIAU(
    ELAS_HYPER=_F(C10=C10, C01=C01, C20=C20, K=K, RHO=1000.0),
    MFRONT=_F(LISTE_COEF=(C01, C10, C20, K)),
    HHO=_F(COEF_STAB=10),
)

CHMAT2 = AFFE_MATERIAU(MAILLAGE=MAIL, AFFE=_F(TOUT="OUI", MATER=RUBBER2))


# MATERIAU HYPERELASTIQUE: SIGNORINI
C01 = 1.2345
C10 = 0.1234
C20 = 0.456
NU = 0.499
K = (6 * (C10 + C01)) / (3 * (1 - 2 * NU))


RUBBER3 = DEFI_MATERIAU(
    ELAS_HYPER=_F(C10=C10, C01=C01, C20=C20, K=K, RHO=1000.0),
    MFRONT=_F(LISTE_COEF=(C01, C10, C20, K)),
)


CHMAT3 = AFFE_MATERIAU(MAILLAGE=MAIL, AFFE=_F(TOUT="OUI", MATER=RUBBER3))

LISTE = DEFI_LIST_REEL(DEBUT=0.0, INTERVALLE=_F(JUSQU_A=1.0, NOMBRE=2))

RAMPE = DEFI_FONCTION(NOM_PARA="INST", VALE=(0.0, 0.0, 1.0, 1.0))

MODELE = AFFE_MODELE(
    MAILLAGE=MAIL,
    AFFE=_F(TOUT="OUI", PHENOMENE="MECANIQUE", MODELISATION="3D_HHO", FORMULATION="QUADRATIQUE"),
)

FORCE = AFFE_CHAR_MECA(MODELE=MODELE, PRES_REP=_F(GROUP_MA="SURF_DER", PRES=0.876))

DEPL = AFFE_CHAR_CINE(
    MODELE=MODELE,
    MECA_IMPO=(
        _F(GROUP_MA="SURF_DEV", DY=0.0),
        _F(GROUP_MA="SURF_GAU", DX=0.0),
        _F(GROUP_MA="SURF_BAS", DZ=0.0),
        _F(GROUP_MA="SURF_HAU", DZ=0.0),
    ),
)

RESU1 = STAT_NON_LINE(
    MODELE=MODELE,
    CHAM_MATER=CHMAT1,
    EXCIT=(_F(CHARGE=FORCE, FONC_MULT=RAMPE), _F(CHARGE=DEPL)),
    NEWTON=(_F(REAC_INCR=1, MATRICE="TANGENTE", REAC_ITER=1)),
    COMPORTEMENT=_F(
        RELATION="MFRONT", DEFORMATION="GREEN_LAGRANGE", COMPOR_MFRONT=behaviour, RESI_INTE=1e-11
    ),
    CONVERGENCE=(_F(ARRET="OUI", ITER_GLOB_MAXI=20)),
    INCREMENT=_F(LIST_INST=LISTE),
)

RESU1 = CALC_CHAMP(reuse=RESU1, RESULTAT=RESU1, CONTRAINTE=("SIGM_NOEU"))

RESU2 = STAT_NON_LINE(
    MODELE=MODELE,
    CHAM_MATER=CHMAT2,
    EXCIT=(_F(CHARGE=FORCE, FONC_MULT=RAMPE), _F(CHARGE=DEPL)),
    NEWTON=(_F(REAC_INCR=1, MATRICE="TANGENTE", PREDICTION="TANGENTE", REAC_ITER=1)),
    COMPORTEMENT=_F(
        RELATION="MFRONT", DEFORMATION="GREEN_LAGRANGE", COMPOR_MFRONT=behaviour, RESI_INTE=1e-11
    ),
    CONVERGENCE=(_F(ARRET="OUI", ITER_GLOB_MAXI=20)),
    INCREMENT=_F(LIST_INST=LISTE),
)

RESU2 = CALC_CHAMP(reuse=RESU2, RESULTAT=RESU2, CONTRAINTE=("SIGM_NOEU"))

RESU3 = STAT_NON_LINE(
    MODELE=MODELE,
    CHAM_MATER=CHMAT3,
    EXCIT=(_F(CHARGE=FORCE, FONC_MULT=RAMPE), _F(CHARGE=DEPL)),
    NEWTON=(_F(REAC_INCR=1, MATRICE="TANGENTE", REAC_ITER=1)),
    COMPORTEMENT=_F(
        RELATION="MFRONT", DEFORMATION="GREEN_LAGRANGE", COMPOR_MFRONT=behaviour, RESI_INTE=1e-11
    ),
    CONVERGENCE=(_F(ARRET="OUI", ITER_GLOB_MAXI=20)),
    INFO=2,
    INCREMENT=_F(LIST_INST=LISTE),
)

RESU3 = CALC_CHAMP(reuse=RESU3, RESULTAT=RESU3, CONTRAINTE=("SIGM_NOEU"))

TEST_RESU(
    RESU=_F(
        NUME_ORDRE=2,
        GROUP_NO=("TestDisp",),
        REFERENCE="ANALYTIQUE",
        RESULTAT=RESU1,
        NOM_CHAM="HHO_DEPL",
        NOM_CMP="DY",
        VALE_CALC=-0.034072485808819955,
        VALE_REFE=-0.034009,
        CRITERE="RELATIF",
        PRECISION=2.0e-3,
    )
)

TEST_RESU(
    RESU=(
        _F(
            CRITERE=("RELATIF",),
            GROUP_NO=("TestSigm",),
            NOM_CHAM="SIGM_NOEU",
            NOM_CMP="SIYY",
            NUME_ORDRE=2,
            RESULTAT=RESU1,
            VALE_CALC=-0.8462689289916588,
        ),
        _F(
            CRITERE=("RELATIF",),
            GROUP_NO=("TestSigm",),
            NOM_CHAM="SIGM_NOEU",
            NOM_CMP="SIZZ",
            NUME_ORDRE=2,
            RESULTAT=RESU1,
            VALE_CALC=-0.4144529006937721,
        ),
    )
)

TEST_RESU(
    RESU=_F(
        NUME_ORDRE=2,
        GROUP_NO=("TestDisp",),
        REFERENCE="ANALYTIQUE",
        RESULTAT=RESU2,
        NOM_CHAM="HHO_DEPL",
        NOM_CMP="DY",
        VALE_CALC=-0.07833083094669781,
        VALE_REFE=-0.078180,
        CRITERE="RELATIF",
        PRECISION=0.003,
    )
)

TEST_RESU(
    RESU=(
        _F(
            CRITERE=("RELATIF",),
            GROUP_NO=("TestSigm",),
            NOM_CHAM="SIGM_NOEU",
            NOM_CMP="SIYY",
            NUME_ORDRE=2,
            RESULTAT=RESU2,
            VALE_CALC=-0.8076533616506714,
        ),
        _F(
            CRITERE=("RELATIF",),
            GROUP_NO=("TestSigm",),
            NOM_CHAM="SIGM_NOEU",
            NOM_CMP="SIZZ",
            NUME_ORDRE=2,
            RESULTAT=RESU2,
            VALE_CALC=-0.43579674736444285,
        ),
    )
)

TEST_RESU(
    RESU=_F(
        NUME_ORDRE=2,
        GROUP_NO=("TestDisp",),
        REFERENCE="ANALYTIQUE",
        RESULTAT=RESU3,
        NOM_CHAM="HHO_DEPL",
        NOM_CMP="DY",
        VALE_CALC=-0.07105838360806645,
        VALE_REFE=-0.070936,
        CRITERE="RELATIF",
        PRECISION=2.0e-3,
    )
)

TEST_RESU(
    RESU=(
        _F(
            CRITERE=("RELATIF",),
            GROUP_NO=("TestSigm",),
            NOM_CHAM="SIGM_NOEU",
            NOM_CMP="SIYY",
            NUME_ORDRE=2,
            RESULTAT=RESU3,
            VALE_CALC=-0.8139919369375772,
        ),
        _F(
            CRITERE=("RELATIF",),
            GROUP_NO=("TestSigm",),
            NOM_CHAM="SIGM_NOEU",
            NOM_CMP="SIZZ",
            NUME_ORDRE=2,
            RESULTAT=RESU3,
            VALE_CALC=-0.3825112593032164,
        ),
    )
)

FIN()
