# coding=utf-8
# --------------------------------------------------------------------
# Copyright (C) 1991 - 2025 - EDF R&D - www.code-aster.org
# This file is part of code_aster.
#
# code_aster is free software: you can redistribute it and/or modify
# it under the terms of the GNU General Public License as published by
# the Free Software Foundation, either version 3 of the License, or
# (at your option) any later version.
#
# code_aster is distributed in the hope that it will be useful,
# but WITHOUT ANY WARRANTY; without even the implied warranty of
# MERCHANTABILITY or FITNESS FOR A PARTICULAR PURPOSE.  See the
# GNU General Public License for more details.
#
# You should have received a copy of the GNU General Public License
# along with code_aster.  If not, see <http://www.gnu.org/licenses/>.
# --------------------------------------------------------------------

#    TEST MODELE VISCO-PLASTIQUE COUPLE AVEC L'ENDOMMAGEMENT
#     ISOTROPE DE CHABOCHE EN ANISOTHERME ( VENDOCHAB)
#    ESSAI EN TRACTION (RELAXATION) IMPLICITE
#    DEPLACEMENT IMPOSE A TEMPERATURE ANISOTHERME DANS LE TEMPS
# ----------------------------------------------------------------------
#         ELEMENT HEXA 8 NOEUDS EN TRACTION
#              ETAT UNIAXIAL DE CONTRAINTE DEFORMATION
#       UNITES : NEWTON , MILLIMETRE , SECONDE (N,MM,S,->MPA)
#
#               Z       A                     A = 3 MM
#               L<------------->
#               L                             L = 30 MM
#                / N5            N8
#              >O--------------O      X
#              /L             /L      L
#         N6  / L         N7 / L      L
#           >O--+-----------O  L      L
#            L  L           L  L      L
#            L  L           L  L      L
#            L  L           L  L      L  L
#            L  L           L  L      L
#            L  L           L  L      L
#            L  L           L  L      L
#            L  L           L  L      L
#            L  L           L  L      L
#            L  L           L  L      L
#            L  L/ N1       L  L N4   L
#            L >O-----------L--O-> Y  V
#            L /V           L /
#         N2 L/          N3 L/
#           >O--------------O
#
#          /
#         X
#
# ----------------------------------------------------------------------
#
#

DEBUT(CODE="OUI", ERREUR=_F(ALARME="EXCEPTION"), DEBUG=_F(SDVERI="OUI"))

# ----------------------------------------------------------------------
#              TEST MODELE VENDOCHAB 3D
#      PAS DE CHARGEMENT THERMIQUE (ALPHA = 0 )
#      RELAXATION D UNE EPROUVETTE PARRALELIPIPEDIQUE
#      EN TRACTION UNIAXIALE
#      CHAMPS DE TEMPERATURE ANISOTHERME
#      K_D NE DEPEND QUE DE LA TEMPERATURE (FONCTION)
# ----------------------------------------------------------------------
#
EPROU = LIRE_MAILLAGE(FORMAT="ASTER")

CT1 = CREA_CHAMP(
    OPERATION="AFFE",
    TYPE_CHAM="NOEU_TEMP_R",
    MAILLAGE=EPROU,
    AFFE=(
        _F(GROUP_NO="N1", NOM_CMP="TEMP", VALE=1000.0),
        _F(GROUP_NO="N2", NOM_CMP="TEMP", VALE=1000.0),
        _F(GROUP_NO="N3", NOM_CMP="TEMP", VALE=1000.0),
        _F(GROUP_NO="N4", NOM_CMP="TEMP", VALE=1000.0),
        _F(GROUP_NO="N5", NOM_CMP="TEMP", VALE=1000.0),
        _F(GROUP_NO="N6", NOM_CMP="TEMP", VALE=1000.0),
        _F(GROUP_NO="N7", NOM_CMP="TEMP", VALE=1000.0),
        _F(GROUP_NO="N8", NOM_CMP="TEMP", VALE=1000.0),
    ),
)

CT2 = CREA_CHAMP(
    OPERATION="AFFE",
    TYPE_CHAM="NOEU_TEMP_R",
    MAILLAGE=EPROU,
    AFFE=(
        _F(GROUP_NO="N1", NOM_CMP="TEMP", VALE=1025.0),
        _F(GROUP_NO="N2", NOM_CMP="TEMP", VALE=1025.0),
        _F(GROUP_NO="N3", NOM_CMP="TEMP", VALE=1025.0),
        _F(GROUP_NO="N4", NOM_CMP="TEMP", VALE=1025.0),
        _F(GROUP_NO="N5", NOM_CMP="TEMP", VALE=1025.0),
        _F(GROUP_NO="N6", NOM_CMP="TEMP", VALE=1025.0),
        _F(GROUP_NO="N7", NOM_CMP="TEMP", VALE=1025.0),
        _F(GROUP_NO="N8", NOM_CMP="TEMP", VALE=1025.0),
    ),
)

CTHER = CREA_RESU(
    OPERATION="AFFE",
    TYPE_RESU="EVOL_THER",
    AFFE=(
        _F(NOM_CHAM="TEMP", CHAM_GD=CT1, INST=0.0),
        _F(NOM_CHAM="TEMP", CHAM_GD=CT1, INST=200000.0),
        _F(NOM_CHAM="TEMP", CHAM_GD=CT2, INST=2000000.0),
        _F(NOM_CHAM="TEMP", CHAM_GD=CT2, INST=3000000.0),
    ),
)

EPD3 = AFFE_MODELE(
    MAILLAGE=EPROU, AFFE=_F(PHENOMENE="MECANIQUE", MODELISATION="3D", GROUP_MA="MA1")
)

SEUIL = DEFI_CONSTANTE(VALE=0.0)

A1 = DEFI_CONSTANTE(VALE=0.0)

A2 = DEFI_CONSTANTE(VALE=0.0)

N_T = DEFI_FONCTION(
    NOM_PARA="TEMP",
    PROL_DROITE="CONSTANT",
    PROL_GAUCHE="CONSTANT",
    VALE=(900.0, 12.2, 1000.0, 10.8, 1025.0, 10.45),
)

M_T = DEFI_FONCTION(
    NOM_PARA="TEMP",
    PROL_DROITE="CONSTANT",
    PROL_GAUCHE="CONSTANT",
    VALE=(900.0, (1.0 / 10.5), 1000.0, (1.0 / 9.8), 1025.0, (1.0 / 9.625)),
)

K_T = DEFI_FONCTION(
    NOM_PARA="TEMP",
    PROL_DROITE="CONSTANT",
    PROL_GAUCHE="CONSTANT",
    VALE=(900.0, (1.0 / 2110.0), 1000.0, (1.0 / 1450.0), 1025.0, (1.0 / 1285.0)),
)

A_T = DEFI_FONCTION(
    NOM_PARA="TEMP",
    PROL_DROITE="CONSTANT",
    PROL_GAUCHE="CONSTANT",
    VALE=(900.0, 3191.62, 1000.0, 2511.35, 1025.0, 2341.3),
)

R_T = DEFI_FONCTION(
    NOM_PARA="TEMP",
    PROL_DROITE="CONSTANT",
    PROL_GAUCHE="CONSTANT",
    VALE=(900.0, 6.3, 1000.0, 5.2, 1025.0, 4.925),
)

KD_T = DEFI_FONCTION(
    NOM_PARA="TEMP",
    PROL_DROITE="LINEAIRE",
    PROL_GAUCHE="LINEAIRE",
    VALE=(900.0, 5.0, 1000.0, 5.0, 1050.0, 5.0),
)

F_E = DEFI_CONSTANTE(VALE=150000.0)

F_NU = DEFI_CONSTANTE(VALE=0.3)

F_ALPHA = DEFI_CONSTANTE(VALE=0.0)

ACIER = DEFI_MATERIAU(
    ELAS_FO=_F(E=F_E, NU=F_NU, ALPHA=F_ALPHA, TEMP_DEF_ALPHA=1000.0),
    LEMAITRE_FO=_F(N=N_T, UN_SUR_M=M_T, UN_SUR_K=K_T),
    VENDOCHAB_FO=_F(SY=SEUIL, ALPHA_D=A1, BETA_D=A2, A_D=A_T, R_D=R_T, K_D=KD_T),
)


LINST = DEFI_LIST_REEL(
    DEBUT=0.0,
    INTERVALLE=(
        _F(JUSQU_A=0.2, NOMBRE=10),
        _F(JUSQU_A=2.0, NOMBRE=5),
        _F(JUSQU_A=20.0, NOMBRE=5),
        _F(JUSQU_A=200.0, NOMBRE=5),
        _F(JUSQU_A=2000.0, NOMBRE=5),
        _F(JUSQU_A=20000.0, NOMBRE=5),
        _F(JUSQU_A=200000.0, NOMBRE=5),
        _F(JUSQU_A=1000000.0, NOMBRE=10),
        _F(JUSQU_A=1600000.0, NOMBRE=10),
        _F(JUSQU_A=1700000.0, NOMBRE=10),
    ),
)

COND_LIM = AFFE_CHAR_MECA(
    MODELE=EPD3,
    DDL_IMPO=(
        _F(GROUP_NO="N1", DX=0.0, DY=0.0, DZ=0.0),
        _F(GROUP_NO="N2", DY=0.0, DZ=0.0),
        _F(GROUP_NO="N3", DZ=0.0),
        _F(GROUP_NO="N4", DX=0.0, DZ=0.0),
        _F(GROUP_NO="N5", DX=0.0, DY=0.0, DZ=0.1),
        _F(GROUP_NO="N6", DY=0.0, DZ=0.1),
        _F(GROUP_NO="N7", DZ=0.1),
        _F(GROUP_NO="N8", DX=0.0, DZ=0.1),
    ),
)

COEF_TR = DEFI_FONCTION(
    NOM_PARA="INST",
    VALE=(
        0.0,
        0.0,
        0.1,
        1.0,
        100.0,
        1.0,
        1500000.0,
        1.0,
        2400000.0,
        1.0,
        2450000.0,
        1.0,
        3000000.0,
        1.0,
    ),
)

MAT = AFFE_MATERIAU(
    MAILLAGE=EPROU,
    AFFE=_F(GROUP_MA="MA1", MATER=ACIER),
    AFFE_VARC=_F(TOUT="OUI", EVOL=CTHER, NOM_VARC="TEMP", NOM_CHAM="TEMP", VALE_REF=1000.0),
)


########################################################
# CALCUL EXPLICITE POUR ETABLIR LA SOLUTION DE REFERENCE
# LORSQUE KD_T NE DEPEND QUE DE T
########################################################


SOLNK = STAT_NON_LINE(
    TITRE="TEST RELAXATION SIMPLE",
    MODELE=EPD3,
    CHAM_MATER=MAT,
    EXCIT=_F(CHARGE=COND_LIM, FONC_MULT=COEF_TR),
    COMPORTEMENT=_F(
        RELATION="VENDOCHAB",
        DEFORMATION="PETIT",
        RESI_INTE=1.0e-6,
        ITER_INTE_MAXI=20,
        ALGO_INTE="RUNGE_KUTTA",
        TOUT="OUI",
    ),
    INCREMENT=_F(LIST_INST=LINST, NUME_INST_FIN=60),
    NEWTON=_F(MATRICE="ELASTIQUE", REAC_INCR=5, REAC_ITER=3),
    CONVERGENCE=_F(ITER_GLOB_MAXI=20, RESI_GLOB_RELA=1.0e-6),
)

SOLNK = CALC_CHAMP(
    reuse=SOLNK, CONTRAINTE=("SIGM_ELNO"), VARI_INTERNE=("VARI_ELNO"), RESULTAT=SOLNK
)


TEST_RESU(
    RESU=(
        _F(
            NUME_ORDRE=20,
            RESULTAT=SOLNK,
            NOM_CHAM="SIGM_ELNO",
            GROUP_NO="N1",
            NOM_CMP="SIZZ",
            VALE_CALC=253.025227833,
            VALE_REFE=253.02000000000001,
            REFERENCE="ANALYTIQUE",
            PRECISION=5.0000000000000001e-3,
            GROUP_MA="MA1",
        ),
        _F(
            NUME_ORDRE=20,
            RESULTAT=SOLNK,
            NOM_CHAM="VARI_ELNO",
            GROUP_NO="N1",
            NOM_CMP="V7",
            VALE_CALC=1.64610703e-03,
            VALE_REFE=1.6461e-3,
            REFERENCE="ANALYTIQUE",
            PRECISION=5.0000000000000001e-3,
            GROUP_MA="MA1",
        ),
        _F(
            NUME_ORDRE=20,
            RESULTAT=SOLNK,
            NOM_CHAM="VARI_ELNO",
            GROUP_NO="N1",
            NOM_CMP="V8",
            VALE_CALC=1.64605331e-03,
            VALE_REFE=1.6459999999999999e-3,
            REFERENCE="ANALYTIQUE",
            PRECISION=5.0000000000000001e-3,
            GROUP_MA="MA1",
        ),
        _F(
            NUME_ORDRE=20,
            RESULTAT=SOLNK,
            NOM_CHAM="VARI_ELNO",
            GROUP_NO="N1",
            NOM_CMP="V9",
            VALE_CALC=2.32021286e-04,
            VALE_REFE=2.32e-4,
            REFERENCE="ANALYTIQUE",
            PRECISION=5.0000000000000001e-3,
            GROUP_MA="MA1",
        ),
        _F(
            NUME_ORDRE=30,
            RESULTAT=SOLNK,
            NOM_CHAM="SIGM_ELNO",
            GROUP_NO="N1",
            NOM_CMP="SIZZ",
            VALE_CALC=164.367741334,
            VALE_REFE=164.36000000000001,
            REFERENCE="ANALYTIQUE",
            PRECISION=5.0000000000000001e-3,
            GROUP_MA="MA1",
        ),
        _F(
            NUME_ORDRE=30,
            RESULTAT=SOLNK,
            NOM_CHAM="VARI_ELNO",
            GROUP_NO="N1",
            NOM_CMP="V7",
            VALE_CALC=2.23453773e-03,
            VALE_REFE=2.2344999999999999e-3,
            REFERENCE="ANALYTIQUE",
            PRECISION=5.0000000000000001e-3,
            GROUP_MA="MA1",
        ),
        _F(
            NUME_ORDRE=30,
            RESULTAT=SOLNK,
            NOM_CHAM="VARI_ELNO",
            GROUP_NO="N1",
            NOM_CMP="V8",
            VALE_CALC=2.23391610e-03,
            VALE_REFE=2.2339e-3,
            REFERENCE="ANALYTIQUE",
            PRECISION=5.0000000000000001e-3,
            GROUP_MA="MA1",
        ),
        _F(
            NUME_ORDRE=30,
            RESULTAT=SOLNK,
            NOM_CHAM="VARI_ELNO",
            GROUP_NO="N1",
            NOM_CMP="V9",
            VALE_CALC=2.73998723e-03,
            VALE_REFE=2.7399e-3,
            REFERENCE="ANALYTIQUE",
            PRECISION=5.0000000000000001e-3,
            GROUP_MA="MA1",
        ),
        _F(
            NUME_ORDRE=40,
            RESULTAT=SOLNK,
            NOM_CHAM="SIGM_ELNO",
            GROUP_NO="N1",
            NOM_CMP="SIZZ",
            VALE_CALC=102.166457748,
            VALE_REFE=102.16,
            REFERENCE="ANALYTIQUE",
            PRECISION=5.0000000000000001e-3,
            GROUP_MA="MA1",
        ),
        _F(
            NUME_ORDRE=40,
            RESULTAT=SOLNK,
            NOM_CHAM="VARI_ELNO",
            GROUP_NO="N1",
            NOM_CMP="V7",
            VALE_CALC=2.63291900e-03,
            VALE_REFE=2.6329000000000001e-3,
            REFERENCE="ANALYTIQUE",
            PRECISION=5.0000000000000001e-3,
            GROUP_MA="MA1",
        ),
        _F(
            NUME_ORDRE=40,
            RESULTAT=SOLNK,
            NOM_CHAM="VARI_ELNO",
            GROUP_NO="N1",
            NOM_CMP="V8",
            VALE_CALC=2.62828312e-03,
            VALE_REFE=2.6282800000000002e-3,
            REFERENCE="ANALYTIQUE",
            PRECISION=5.0000000000000001e-3,
            GROUP_MA="MA1",
        ),
        _F(
            NUME_ORDRE=40,
            RESULTAT=SOLNK,
            NOM_CHAM="VARI_ELNO",
            GROUP_NO="N1",
            NOM_CMP="V9",
            VALE_CALC=0.027561721,
            VALE_REFE=0.027560999999999999,
            REFERENCE="ANALYTIQUE",
            PRECISION=5.0000000000000001e-3,
            GROUP_MA="MA1",
        ),
        _F(
            NUME_ORDRE=50,
            RESULTAT=SOLNK,
            NOM_CHAM="SIGM_ELNO",
            GROUP_NO="N1",
            NOM_CMP="SIZZ",
            VALE_CALC=79.746659900,
            VALE_REFE=79.920000000000002,
            REFERENCE="ANALYTIQUE",
            PRECISION=5.0000000000000001e-3,
            GROUP_MA="MA1",
        ),
        _F(
            NUME_ORDRE=50,
            RESULTAT=SOLNK,
            NOM_CHAM="VARI_ELNO",
            GROUP_NO="N1",
            NOM_CMP="V7",
            VALE_CALC=2.76408610e-03,
            VALE_REFE=2.762699e-3,
            REFERENCE="ANALYTIQUE",
            PRECISION=5.0000000000000001e-3,
            GROUP_MA="MA1",
        ),
        _F(
            NUME_ORDRE=50,
            RESULTAT=SOLNK,
            NOM_CHAM="VARI_ELNO",
            GROUP_NO="N1",
            NOM_CMP="V8",
            VALE_CALC=2.75362101e-03,
            VALE_REFE=2.7522900000000001e-3,
            REFERENCE="ANALYTIQUE",
            PRECISION=5.0000000000000001e-3,
            GROUP_MA="MA1",
        ),
        _F(
            NUME_ORDRE=50,
            RESULTAT=SOLNK,
            NOM_CHAM="VARI_ELNO",
            GROUP_NO="N1",
            NOM_CMP="V9",
            VALE_CALC=0.066057122,
            VALE_REFE=0.066266500000000006,
            REFERENCE="ANALYTIQUE",
            PRECISION=1.0e-2,
            GROUP_MA="MA1",
        ),
        _F(
            NUME_ORDRE=60,
            RESULTAT=SOLNK,
            NOM_CHAM="SIGM_ELNO",
            GROUP_NO="N1",
            NOM_CMP="SIZZ",
            VALE_CALC=70.726601496,
            VALE_REFE=70.900000000000006,
            REFERENCE="ANALYTIQUE",
            PRECISION=1.0e-2,
            GROUP_MA="MA1",
        ),
        _F(
            NUME_ORDRE=60,
            RESULTAT=SOLNK,
            NOM_CHAM="VARI_ELNO",
            GROUP_NO="N1",
            NOM_CMP="V7",
            VALE_CALC=2.81534917e-03,
            VALE_REFE=2.8137000000000001e-3,
            REFERENCE="ANALYTIQUE",
            PRECISION=5.0000000000000001e-3,
            GROUP_MA="MA1",
        ),
        _F(
            NUME_ORDRE=60,
            RESULTAT=SOLNK,
            NOM_CHAM="VARI_ELNO",
            GROUP_NO="N1",
            NOM_CMP="V8",
            VALE_CALC=2.80091521e-03,
            VALE_REFE=2.7992999999999998e-3,
            REFERENCE="ANALYTIQUE",
            PRECISION=5.0000000000000001e-3,
            GROUP_MA="MA1",
        ),
        _F(
            NUME_ORDRE=60,
            RESULTAT=SOLNK,
            NOM_CHAM="VARI_ELNO",
            GROUP_NO="N1",
            NOM_CMP="V9",
            VALE_CALC=0.089719906,
            VALE_REFE=0.090278800000000006,
            REFERENCE="ANALYTIQUE",
            PRECISION=1.0e-2,
            GROUP_MA="MA1",
        ),
    )
)

########################################################
# CALCUL IMPLICITE LORSQUE KD_T NE DEPEND QUE DE T
########################################################


SOLNL = STAT_NON_LINE(
    TITRE="TEST RELAXATION SIMPLE",
    MODELE=EPD3,
    CHAM_MATER=MAT,
    EXCIT=_F(CHARGE=COND_LIM, FONC_MULT=COEF_TR),
    COMPORTEMENT=_F(
        RELATION="VENDOCHAB",
        DEFORMATION="PETIT",
        RESI_INTE=1.0e-6,
        ITER_INTE_MAXI=60,
        ALGO_INTE="NEWTON",
        TOUT="OUI",
    ),
    INCREMENT=_F(LIST_INST=LINST, NUME_INST_FIN=60),
    NEWTON=_F(MATRICE="TANGENTE", REAC_ITER=3),
    CONVERGENCE=_F(ITER_GLOB_MAXI=20, RESI_GLOB_RELA=1.0e-6),
)

SOLNL = CALC_CHAMP(
    reuse=SOLNL, CONTRAINTE=("SIGM_ELNO"), VARI_INTERNE=("VARI_ELNO"), RESULTAT=SOLNL
)


TEST_RESU(
    RESU=(
        _F(
            NUME_ORDRE=20,
            RESULTAT=SOLNL,
            NOM_CHAM="SIGM_ELNO",
            GROUP_NO="N1",
            NOM_CMP="SIZZ",
            VALE_CALC=258.158782084,
            VALE_REFE=253.02000000000001,
            REFERENCE="ANALYTIQUE",
            PRECISION=0.040000000000000001,
            GROUP_MA="MA1",
        ),
        _F(
            NUME_ORDRE=20,
            RESULTAT=SOLNL,
            NOM_CHAM="VARI_ELNO",
            GROUP_NO="N1",
            NOM_CMP="V7",
            VALE_CALC=1.61186371e-03,
            VALE_REFE=1.6461e-3,
            REFERENCE="ANALYTIQUE",
            PRECISION=0.040000000000000001,
            GROUP_MA="MA1",
        ),
        _F(
            NUME_ORDRE=20,
            RESULTAT=SOLNL,
            NOM_CHAM="VARI_ELNO",
            GROUP_NO="N1",
            NOM_CMP="V8",
            VALE_CALC=1.61178340e-03,
            VALE_REFE=1.6459999999999999e-3,
            REFERENCE="ANALYTIQUE",
            PRECISION=0.040000000000000001,
            GROUP_MA="MA1",
        ),
        _F(
            NUME_ORDRE=20,
            RESULTAT=SOLNL,
            NOM_CHAM="VARI_ELNO",
            GROUP_NO="N1",
            NOM_CMP="V9",
            VALE_CALC=2.38791270e-04,
            VALE_REFE=2.32e-4,
            REFERENCE="ANALYTIQUE",
            PRECISION=0.040000000000000001,
            GROUP_MA="MA1",
        ),
        _F(
            NUME_ORDRE=30,
            RESULTAT=SOLNL,
            NOM_CHAM="SIGM_ELNO",
            GROUP_NO="N1",
            NOM_CMP="SIZZ",
            VALE_CALC=167.958404467,
            VALE_REFE=164.36000000000001,
            REFERENCE="ANALYTIQUE",
            PRECISION=0.040000000000000001,
            GROUP_MA="MA1",
        ),
        _F(
            NUME_ORDRE=30,
            RESULTAT=SOLNL,
            NOM_CHAM="VARI_ELNO",
            GROUP_NO="N1",
            NOM_CMP="V7",
            VALE_CALC=2.21044297e-03,
            VALE_REFE=2.2344999999999999e-3,
            REFERENCE="ANALYTIQUE",
            PRECISION=0.040000000000000001,
            GROUP_MA="MA1",
        ),
        _F(
            NUME_ORDRE=30,
            RESULTAT=SOLNL,
            NOM_CHAM="VARI_ELNO",
            GROUP_NO="N1",
            NOM_CMP="V8",
            VALE_CALC=2.20966419e-03,
            VALE_REFE=2.2339e-3,
            REFERENCE="ANALYTIQUE",
            PRECISION=0.040000000000000001,
            GROUP_MA="MA1",
        ),
        _F(
            NUME_ORDRE=30,
            RESULTAT=SOLNL,
            NOM_CHAM="VARI_ELNO",
            GROUP_NO="N1",
            NOM_CMP="V9",
            VALE_CALC=2.82099401e-03,
            VALE_REFE=2.7399e-3,
            REFERENCE="ANALYTIQUE",
            PRECISION=0.040000000000000001,
            GROUP_MA="MA1",
        ),
        _F(
            NUME_ORDRE=40,
            RESULTAT=SOLNL,
            NOM_CHAM="SIGM_ELNO",
            GROUP_NO="N1",
            NOM_CMP="SIZZ",
            VALE_CALC=104.393066458,
            VALE_REFE=102.16,
            REFERENCE="ANALYTIQUE",
            PRECISION=0.040000000000000001,
            GROUP_MA="MA1",
        ),
        _F(
            NUME_ORDRE=40,
            RESULTAT=SOLNL,
            NOM_CHAM="VARI_ELNO",
            GROUP_NO="N1",
            NOM_CMP="V7",
            VALE_CALC=2.61704489e-03,
            VALE_REFE=2.6329000000000001e-3,
            REFERENCE="ANALYTIQUE",
            PRECISION=0.040000000000000001,
            GROUP_MA="MA1",
        ),
        _F(
            NUME_ORDRE=40,
            RESULTAT=SOLNL,
            NOM_CHAM="VARI_ELNO",
            GROUP_NO="N1",
            NOM_CMP="V8",
            VALE_CALC=2.61134859e-03,
            VALE_REFE=2.6282800000000002e-3,
            REFERENCE="ANALYTIQUE",
            PRECISION=0.040000000000000001,
            GROUP_MA="MA1",
        ),
        _F(
            NUME_ORDRE=40,
            RESULTAT=SOLNL,
            NOM_CHAM="VARI_ELNO",
            GROUP_NO="N1",
            NOM_CMP="V9",
            VALE_CALC=0.028388933,
            VALE_REFE=0.027560999999999999,
            REFERENCE="ANALYTIQUE",
            PRECISION=0.040000000000000001,
            GROUP_MA="MA1",
        ),
        _F(
            NUME_ORDRE=50,
            RESULTAT=SOLNL,
            NOM_CHAM="SIGM_ELNO",
            GROUP_NO="N1",
            NOM_CMP="SIZZ",
            VALE_CALC=80.145622351,
            VALE_REFE=79.920000000000002,
            REFERENCE="ANALYTIQUE",
            PRECISION=0.040000000000000001,
            GROUP_MA="MA1",
        ),
        _F(
            NUME_ORDRE=50,
            RESULTAT=SOLNL,
            NOM_CHAM="VARI_ELNO",
            GROUP_NO="N1",
            NOM_CMP="V7",
            VALE_CALC=2.75973302e-03,
            VALE_REFE=2.762699e-3,
            REFERENCE="ANALYTIQUE",
            PRECISION=0.040000000000000001,
            GROUP_MA="MA1",
        ),
        _F(
            NUME_ORDRE=50,
            RESULTAT=SOLNL,
            NOM_CHAM="VARI_ELNO",
            GROUP_NO="N1",
            NOM_CMP="V8",
            VALE_CALC=2.74717730e-03,
            VALE_REFE=2.7522900000000001e-3,
            REFERENCE="ANALYTIQUE",
            PRECISION=0.040000000000000001,
            GROUP_MA="MA1",
        ),
        _F(
            NUME_ORDRE=50,
            RESULTAT=SOLNL,
            NOM_CHAM="VARI_ELNO",
            GROUP_NO="N1",
            NOM_CMP="V9",
            VALE_CALC=0.068507927,
            VALE_REFE=0.066266500000000006,
            REFERENCE="ANALYTIQUE",
            PRECISION=0.040000000000000001,
            GROUP_MA="MA1",
        ),
        _F(
            NUME_ORDRE=60,
            RESULTAT=SOLNL,
            NOM_CHAM="SIGM_ELNO",
            GROUP_NO="N1",
            NOM_CMP="SIZZ",
            VALE_CALC=70.749843105,
            VALE_REFE=70.900000000000006,
            REFERENCE="ANALYTIQUE",
            PRECISION=0.040000000000000001,
            GROUP_MA="MA1",
        ),
        _F(
            NUME_ORDRE=60,
            RESULTAT=SOLNL,
            NOM_CHAM="VARI_ELNO",
            GROUP_NO="N1",
            NOM_CMP="V7",
            VALE_CALC=2.81344985e-03,
            VALE_REFE=2.8137000000000001e-3,
            REFERENCE="ANALYTIQUE",
            PRECISION=0.040000000000000001,
            GROUP_MA="MA1",
        ),
        _F(
            NUME_ORDRE=60,
            RESULTAT=SOLNL,
            NOM_CHAM="VARI_ELNO",
            GROUP_NO="N1",
            NOM_CMP="V8",
            VALE_CALC=2.79652521e-03,
            VALE_REFE=2.7992999999999998e-3,
            REFERENCE="ANALYTIQUE",
            PRECISION=0.040000000000000001,
            GROUP_MA="MA1",
        ),
        _F(
            NUME_ORDRE=60,
            RESULTAT=SOLNL,
            NOM_CHAM="VARI_ELNO",
            GROUP_NO="N1",
            NOM_CMP="V9",
            VALE_CALC=0.092747434,
            VALE_REFE=0.090278800000000006,
            REFERENCE="ANALYTIQUE",
            PRECISION=0.040000000000000001,
            GROUP_MA="MA1",
        ),
    )
)

FIN()
#
