# coding=utf-8
# --------------------------------------------------------------------
# Copyright (C) 1991 - 2025 - EDF R&D - www.code-aster.org
# This file is part of code_aster.
#
# code_aster is free software: you can redistribute it and/or modify
# it under the terms of the GNU General Public License as published by
# the Free Software Foundation, either version 3 of the License, or
# (at your option) any later version.
#
# code_aster is distributed in the hope that it will be useful,
# but WITHOUT ANY WARRANTY; without even the implied warranty of
# MERCHANTABILITY or FITNESS FOR A PARTICULAR PURPOSE.  See the
# GNU General Public License for more details.
#
# You should have received a copy of the GNU General Public License
# along with code_aster.  If not, see <http://www.gnu.org/licenses/>.
# --------------------------------------------------------------------

#                       AVEC LA LOI DE HUJEUX
# PRESSION DE CONSOLIDATION P0 = 100KPA


DEBUT(CODE="OUI", ERREUR=_F(ALARME="EXCEPTION"), DEBUG=_F(SDVERI="OUI"))

# modules mecaniques [kPa]
K = 148.0e6
G = 68.0e6
# =>
YOUNG = 9.0 * K * G / (3.0 * K + G)
POISSON = (3.0 * K - 2.0 * G) / (6.0 * K + 2.0 * G)

# pression de preconsolidation [en kPa]
P0 = 1.0e5


# ***********************************************************************
#    MAILLAGE + MODELE
# ***********************************************************************
MAILLAGE = LIRE_MAILLAGE(FORMAT="ASTER")

MODELE = AFFE_MODELE(
    MAILLAGE=MAILLAGE, AFFE=_F(TOUT="OUI", PHENOMENE="MECANIQUE", MODELISATION="D_PLAN")
)

MAILLAGE = MODI_MAILLAGE(
    reuse=MAILLAGE,
    MAILLAGE=MAILLAGE,
    ORIE_PEAU=_F(GROUP_MA_PEAU=("DROIT", "GAUCHE", "BAS", "HAUT")),
    INFO=1,
)


# ***********************************************************************
#    INCREMENTS DE TEMPS
# ***********************************************************************
TEMPS1 = DEFI_LIST_REEL(
    DEBUT=0.0, INTERVALLE=(_F(JUSQU_A=2.0, NOMBRE=200), _F(JUSQU_A=10.0, NOMBRE=80))
)

TEMPS2 = DEFI_LIST_REEL(
    DEBUT=0.0,
    INTERVALLE=(
        _F(JUSQU_A=1.0, NOMBRE=10),
        _F(JUSQU_A=7.0, NOMBRE=60),
        _F(JUSQU_A=10.0, NOMBRE=30),
    ),
)
# ***********************************************************************
#    MATERIAU : SOL
# ***********************************************************************
SOL = DEFI_MATERIAU(
    ELAS=_F(E=YOUNG, NU=POISSON),
    HUJEUX=_F(
        N=0.0,
        BETA=30.0,
        D=2.5,
        B=0.2,
        PHI=33.0,
        ANGDIL=33.0,
        PCO=-0.4e6,
        PREF=-1.0e6,
        AMON=0.017,
        ACYC=0.0001,
        CMON=0.08,
        CCYC=0.04,
        RD_ELA=0.01,
        RI_ELA=0.0001,
        RHYS=0.05,
        RMOB=0.9,
        XM=1.0,
        RD_CYC=0.01,
        RI_CYC=0.0001,
        DILA=1.0,
    ),
)

CHMAT = AFFE_MATERIAU(MAILLAGE=MAILLAGE, AFFE=_F(TOUT="OUI", MATER=SOL))

# ***********************************************************************
#    CHARGEMENT MECANIQUE : FORCE DE COMPRESSION + DDL IMPOSES
# ***********************************************************************
CHAR_U1 = AFFE_CHAR_MECA(MODELE=MODELE, PRES_REP=_F(GROUP_MA=("DROIT", "GAUCHE", "HAUT"), PRES=1.0))

CHAR_U2 = AFFE_CHAR_MECA(MODELE=MODELE, FACE_IMPO=_F(GROUP_MA="HAUT", DY=-1.0))

DEPL_1 = AFFE_CHAR_MECA(
    MODELE=MODELE, FACE_IMPO=(_F(GROUP_MA="BAS", DY=0.0), _F(GROUP_MA="GAUCHE", DX=0.0))
)

COEF1 = DEFI_FONCTION(NOM_PARA="INST", PROL_DROITE="CONSTANT", VALE=(-1.0, 0.0, 0.0, P0))

COEF2 = DEFI_FONCTION(NOM_PARA="INST", PROL_DROITE="CONSTANT", VALE=(0.0, 0.0, 10.0, 0.2))

DEFLIST1 = DEFI_LIST_INST(
    DEFI_LIST=_F(LIST_INST=TEMPS1),
    ECHEC=_F(ACTION="DECOUPE", SUBD_METHODE="MANUEL", SUBD_PAS=10, SUBD_NIVEAU=10),
)

# ***********************************************************************
#    PRECONSOLIDATION ELASTIQUE JUSQU'A 100KPA
# ***********************************************************************
SIEF = CREA_CHAMP(
    INFO=2,
    TYPE_CHAM="ELGA_SIEF_R",
    OPERATION="AFFE",
    MODELE=MODELE,
    PROL_ZERO="OUI",
    AFFE=_F(GROUP_MA="BLOC", NOM_CMP=("SIXX", "SIYY", "SIZZ"), VALE=(-P0, -P0, -P0)),
)

# ***********************************************************************
#    ESSAI TRIAXIAL DRAINE
# ***********************************************************************
U1 = STAT_NON_LINE(
    MODELE=MODELE,
    CHAM_MATER=CHMAT,
    EXCIT=(
        _F(CHARGE=CHAR_U1, FONC_MULT=COEF1),
        _F(CHARGE=CHAR_U2, TYPE_CHARGE="DIDI", FONC_MULT=COEF2),
        _F(CHARGE=DEPL_1),
    ),
    ETAT_INIT=_F(SIGM=SIEF),
    COMPORTEMENT=_F(
        RELATION="HUJEUX",
        ALGO_INTE="SPECIFIQUE",
        RESI_INTE=1.0e-8,
        ITER_INTE_MAXI=1,
        ITER_INTE_PAS=0,
    ),
    NEWTON=_F(MATRICE="TANGENTE", REAC_ITER=1),
    CONVERGENCE=_F(RESI_GLOB_RELA=1.0e-6, ITER_GLOB_MAXI=20),
    ARCHIVAGE=_F(LIST_INST=TEMPS2),
    INCREMENT=_F(LIST_INST=DEFLIST1, INST_INIT=0.0, INST_FIN=10.0),
)


# ****************************************
#   POST-TRAITEMENT
# ****************************************
U1 = CALC_CHAMP(
    reuse=U1,
    CRITERES=("INDL_ELGA", "PDIL_ELGA"),
    VARI_INTERNE=("VARI_ELNO"),
    DEFORMATION=("EPSI_ELNO"),
    CONTRAINTE=("SIGM_ELNO"),
    RESULTAT=U1,
)


U1 = CALC_CHAMP(
    reuse=U1, CONTRAINTE="SIGM_NOEU", VARI_INTERNE="VARI_NOEU", DEFORMATION="EPSI_NOEU", RESULTAT=U1
)


TAB_SIG = POST_RELEVE_T(
    ACTION=_F(
        INTITULE="EQUI_NOEU_DEPL",
        GROUP_NO="C",
        RESULTAT=U1,
        NOM_CHAM="SIGM_NOEU",
        NOM_CMP=("SIXX", "SIYY", "SIZZ", "SIXY"),
        OPERATION="EXTRACTION",
    )
)

TAB_VARI = POST_RELEVE_T(
    ACTION=_F(
        INTITULE="VARI_NOEU",
        GROUP_NO="C",
        RESULTAT=U1,
        NOM_CHAM="VARI_NOEU",
        NOM_CMP=("V1", "V2", "V3", "V4", "V5", "V6", "V7", "V8", "V23", "V32"),
        OPERATION="EXTRACTION",
    )
)

TAB_EPSY = POST_RELEVE_T(
    ACTION=_F(
        INTITULE="EPSI_NOEU",
        GROUP_NO="C",
        RESULTAT=U1,
        NOM_CHAM="EPSI_NOEU",
        NOM_CMP="EPYY",
        OPERATION="EXTRACTION",
    )
)

TAB_EPSV = POST_RELEVE_T(
    ACTION=_F(
        INTITULE="EPSI_VOLU",
        GROUP_NO="C",
        RESULTAT=U1,
        NOM_CHAM="EPSI_NOEU",
        INVARIANT="OUI",
        OPERATION="EXTRACTION",
    )
)


TAB_EPSV = CALC_TABLE(
    reuse=TAB_EPSV, TABLE=TAB_EPSV, ACTION=_F(OPERATION="COMB", TABLE=TAB_EPSY, NOM_PARA="INST")
)

TAB_VARI = CALC_TABLE(
    reuse=TAB_VARI, TABLE=TAB_VARI, ACTION=_F(OPERATION="COMB", TABLE=TAB_EPSY, NOM_PARA="INST")
)

TAB_SIG = CALC_TABLE(
    reuse=TAB_SIG, TABLE=TAB_SIG, ACTION=_F(OPERATION="COMB", TABLE=TAB_EPSY, NOM_PARA="INST")
)


# **********************************#
#       TEST_RESU AU POINT C       #
# **********************************#

# ----------------------------------------------------------
# TEST DE LA NORME DU DEVIATEUR DES CONTRAINTES PAR RAPPORT
#               AUX REFERENCES LAWYER
# ----------------------------------------------------------
TEST_TABLE(
    CRITERE="RELATIF",
    REFERENCE="SOURCE_EXTERNE",
    PRECISION=1.0e-2,
    VALE_CALC=-241148.37284030396,
    VALE_REFE=-243079,
    NOM_PARA="SIYY",
    TABLE=TAB_SIG,
    FILTRE=_F(CRITERE="ABSOLU", PRECISION=9.0e-05, NOM_PARA="EPYY", VALE=-1.0e-2),
)

TEST_TABLE(
    CRITERE="RELATIF",
    REFERENCE="SOURCE_EXTERNE",
    PRECISION=1.0e-2,
    VALE_CALC=-286403.1233100989,
    VALE_REFE=-287761,
    NOM_PARA="SIYY",
    TABLE=TAB_SIG,
    FILTRE=_F(CRITERE="ABSOLU", PRECISION=9.0e-05, NOM_PARA="EPYY", VALE=-0.02),
)

TEST_TABLE(
    CRITERE="RELATIF",
    REFERENCE="SOURCE_EXTERNE",
    PRECISION=1.0e-2,
    VALE_CALC=-344499.19019920134,
    VALE_REFE=-345118,
    NOM_PARA="SIYY",
    TABLE=TAB_SIG,
    FILTRE=_F(CRITERE="ABSOLU", PRECISION=9.0e-05, NOM_PARA="EPYY", VALE=-0.05),
)

TEST_TABLE(
    CRITERE="RELATIF",
    REFERENCE="SOURCE_EXTERNE",
    PRECISION=1.0e-2,
    VALE_CALC=-372672.1039861625,
    VALE_REFE=-372909,
    NOM_PARA="SIYY",
    TABLE=TAB_SIG,
    FILTRE=_F(CRITERE="ABSOLU", PRECISION=9.0e-05, NOM_PARA="EPYY", VALE=-0.1),
)

TEST_TABLE(
    CRITERE="RELATIF",
    REFERENCE="SOURCE_EXTERNE",
    PRECISION=1.0e-2,
    VALE_CALC=-377093.35353243817,
    VALE_REFE=-377199,
    NOM_PARA="SIYY",
    TABLE=TAB_SIG,
    FILTRE=_F(CRITERE="ABSOLU", PRECISION=9.0e-05, NOM_PARA="EPYY", VALE=-0.2),
)

# ----------------------------------------------------
# TEST DE LA DEFORMATION VOLUMIQUE TOTALE PAR RAPPORT
#               AUX REFERENCES LAWYER
# ----------------------------------------------------

TEST_TABLE(
    CRITERE="RELATIF",
    REFERENCE="SOURCE_EXTERNE",
    PRECISION=1.0e-2,
    VALE_CALC=-0.004045604513776232,
    VALE_REFE=-4.0657000000000002e-3,
    NOM_PARA="TRACE",
    TABLE=TAB_EPSV,
    FILTRE=_F(CRITERE="ABSOLU", PRECISION=9.0e-05, NOM_PARA="EPYY", VALE=-1.0e-2),
)

TEST_TABLE(
    CRITERE="RELATIF",
    REFERENCE="SOURCE_EXTERNE",
    PRECISION=1.0e-2,
    VALE_CALC=-0.00603915707785611,
    VALE_REFE=-6.0377900000000003e-3,
    NOM_PARA="TRACE",
    TABLE=TAB_EPSV,
    FILTRE=_F(CRITERE="ABSOLU", PRECISION=9.0e-05, NOM_PARA="EPYY", VALE=-0.02),
)

TEST_TABLE(
    CRITERE="RELATIF",
    REFERENCE="SOURCE_EXTERNE",
    PRECISION=0.02,
    VALE_CALC=-0.008214776275905951,
    VALE_REFE=-8.1764100000000003e-3,
    NOM_PARA="TRACE",
    TABLE=TAB_EPSV,
    FILTRE=_F(CRITERE="ABSOLU", PRECISION=9.0e-05, NOM_PARA="EPYY", VALE=-0.05),
)

TEST_TABLE(
    CRITERE="RELATIF",
    REFERENCE="SOURCE_EXTERNE",
    PRECISION=0.06,
    VALE_CALC=-0.007244575033393513,
    VALE_REFE=-7.1934099999999999e-3,
    NOM_PARA="TRACE",
    TABLE=TAB_EPSV,
    FILTRE=_F(CRITERE="ABSOLU", PRECISION=9.0e-05, NOM_PARA="EPYY", VALE=-0.1),
)

TEST_TABLE(
    CRITERE="RELATIF",
    REFERENCE="SOURCE_EXTERNE",
    PRECISION=0.04,
    VALE_CALC=-0.0018957680188139703,
    VALE_REFE=-1.8657999999999999e-3,
    NOM_PARA="TRACE",
    TABLE=TAB_EPSV,
    FILTRE=_F(CRITERE="ABSOLU", PRECISION=9.0e-05, NOM_PARA="EPYY", VALE=-0.2),
)

# -------------------------------------------------------
# TEST DU COEF D ECROUISSAGE DEVIATOIRE (YZ) PAR RAPPORT
#                  AUX REFERENCES LAWYER
# -------------------------------------------------------

TEST_TABLE(
    CRITERE="RELATIF",
    REFERENCE="SOURCE_EXTERNE",
    PRECISION=0.02,
    VALE_CALC=0.39245276105469173,
    VALE_REFE=0.39833429999999997,
    NOM_PARA="V1",
    TABLE=TAB_VARI,
    FILTRE=_F(CRITERE="ABSOLU", PRECISION=9.0e-05, NOM_PARA="EPYY", VALE=-1.0e-2),
)

TEST_TABLE(
    CRITERE="RELATIF",
    REFERENCE="SOURCE_EXTERNE",
    PRECISION=1.0e-2,
    VALE_CALC=0.4511686272686444,
    VALE_REFE=0.45495790000000003,
    NOM_PARA="V1",
    TABLE=TAB_VARI,
    FILTRE=_F(CRITERE="ABSOLU", PRECISION=9.0e-05, NOM_PARA="EPYY", VALE=-0.02),
)

TEST_TABLE(
    CRITERE="RELATIF",
    REFERENCE="SOURCE_EXTERNE",
    PRECISION=0.02,
    VALE_CALC=0.5151057133466863,
    VALE_REFE=0.51722159999999995,
    NOM_PARA="V1",
    TABLE=TAB_VARI,
    FILTRE=_F(CRITERE="ABSOLU", PRECISION=9.0e-05, NOM_PARA="EPYY", VALE=-0.05),
)

TEST_TABLE(
    CRITERE="RELATIF",
    REFERENCE="SOURCE_EXTERNE",
    PRECISION=0.06,
    VALE_CALC=0.5513168352089004,
    VALE_REFE=0.55277089999999995,
    NOM_PARA="V1",
    TABLE=TAB_VARI,
    FILTRE=_F(CRITERE="ABSOLU", PRECISION=9.0e-05, NOM_PARA="EPYY", VALE=-0.1),
)

TEST_TABLE(
    CRITERE="RELATIF",
    REFERENCE="SOURCE_EXTERNE",
    PRECISION=1.0e-2,
    VALE_CALC=0.5811482963417097,
    VALE_REFE=0.58217490000000005,
    NOM_PARA="V1",
    TABLE=TAB_VARI,
    FILTRE=_F(CRITERE="ABSOLU", PRECISION=9.0e-05, NOM_PARA="EPYY", VALE=-0.2),
)

# -------------------------------------------------------
# TEST DU COEF D ECROUISSAGE DEVIATOIRE (XY) PAR RAPPORT
#               AUX REFERENCES LAWYER
# -------------------------------------------------------

TEST_TABLE(
    CRITERE="RELATIF",
    REFERENCE="SOURCE_EXTERNE",
    PRECISION=0.02,
    VALE_CALC=0.6371880565326056,
    VALE_REFE=0.64255989999999996,
    NOM_PARA="V3",
    TABLE=TAB_VARI,
    FILTRE=_F(CRITERE="ABSOLU", PRECISION=9.0e-05, NOM_PARA="EPYY", VALE=-1.0e-2),
)

TEST_TABLE(
    CRITERE="RELATIF",
    REFERENCE="SOURCE_EXTERNE",
    PRECISION=1.0e-2,
    VALE_CALC=0.7516113919466251,
    VALE_REFE=0.75463409999999997,
    NOM_PARA="V3",
    TABLE=TAB_VARI,
    FILTRE=_F(CRITERE="ABSOLU", PRECISION=9.0e-05, NOM_PARA="EPYY", VALE=-0.02),
)

TEST_TABLE(
    CRITERE="RELATIF",
    REFERENCE="SOURCE_EXTERNE",
    PRECISION=1.0e-2,
    VALE_CALC=0.8688025529232323,
    VALE_REFE=0.86992740000000002,
    NOM_PARA="V3",
    TABLE=TAB_VARI,
    FILTRE=_F(CRITERE="ABSOLU", PRECISION=9.0e-05, NOM_PARA="EPYY", VALE=-0.05),
)

TEST_TABLE(
    CRITERE="RELATIF",
    REFERENCE="SOURCE_EXTERNE",
    PRECISION=1.0e-2,
    VALE_CALC=0.9259736984497827,
    VALE_REFE=0.92640080000000002,
    NOM_PARA="V3",
    TABLE=TAB_VARI,
    FILTRE=_F(CRITERE="ABSOLU", PRECISION=9.0e-05, NOM_PARA="EPYY", VALE=-0.1),
)

TEST_TABLE(
    CRITERE="RELATIF",
    REFERENCE="SOURCE_EXTERNE",
    PRECISION=1.0e-2,
    VALE_CALC=0.9608293503045687,
    VALE_REFE=0.9609451,
    NOM_PARA="V3",
    TABLE=TAB_VARI,
    FILTRE=_F(CRITERE="ABSOLU", PRECISION=9.0e-05, NOM_PARA="EPYY", VALE=-0.2),
)

# ------------------------------------------------
# TEST DU COEF D ECROUISSAGE ISOTROPE PAR RAPPORT
#               AUX REFERENCES LAWYER
# ------------------------------------------------

TEST_TABLE(
    CRITERE="RELATIF",
    REFERENCE="SOURCE_EXTERNE",
    PRECISION=1.0e-2,
    VALE_CALC=0.14529166638544833,
    VALE_REFE=0.14583409999999999,
    NOM_PARA="V4",
    TABLE=TAB_VARI,
    FILTRE=_F(CRITERE="ABSOLU", PRECISION=9.0e-05, NOM_PARA="EPYY", VALE=-1.0e-2),
)

TEST_TABLE(
    CRITERE="RELATIF",
    REFERENCE="SOURCE_EXTERNE",
    PRECISION=1.0e-2,
    VALE_CALC=0.1545759449288463,
    VALE_REFE=0.1549904,
    NOM_PARA="V4",
    TABLE=TAB_VARI,
    FILTRE=_F(CRITERE="ABSOLU", PRECISION=9.0e-05, NOM_PARA="EPYY", VALE=-0.02),
)

TEST_TABLE(
    CRITERE="RELATIF",
    REFERENCE="SOURCE_EXTERNE",
    PRECISION=1.0e-2,
    VALE_CALC=0.16593354304462055,
    VALE_REFE=0.16626930000000001,
    NOM_PARA="V4",
    TABLE=TAB_VARI,
    FILTRE=_F(CRITERE="ABSOLU", PRECISION=9.0e-05, NOM_PARA="EPYY", VALE=-0.05),
)

TEST_TABLE(
    CRITERE="RELATIF",
    REFERENCE="SOURCE_EXTERNE",
    PRECISION=0.02,
    VALE_CALC=0.1810891151218042,
    VALE_REFE=0.18139159999999999,
    NOM_PARA="V4",
    TABLE=TAB_VARI,
    FILTRE=_F(CRITERE="ABSOLU", PRECISION=9.0e-05, NOM_PARA="EPYY", VALE=-0.1),
)

TEST_TABLE(
    CRITERE="RELATIF",
    REFERENCE="SOURCE_EXTERNE",
    PRECISION=1.0e-2,
    VALE_CALC=0.21378171951540464,
    VALE_REFE=0.21392820000000001,
    NOM_PARA="V4",
    TABLE=TAB_VARI,
    FILTRE=_F(CRITERE="ABSOLU", PRECISION=9.0e-05, NOM_PARA="EPYY", VALE=-0.2),
)

# ------------------------------------------------
# TEST DU CRITERE DE RICE EN NON REGRESSION
# ------------------------------------------------

TEST_RESU(
    RESU=(
        _F(
            NUME_ORDRE=100,
            POINT=1,
            RESULTAT=U1,
            NOM_CHAM="INDL_ELGA",
            NOM_CMP="INDICE",
            VALE_CALC=1.0,
            GROUP_MA="M1",
        ),
        _F(
            NUME_ORDRE=100,
            VALE_ABS="OUI",
            POINT=1,
            RESULTAT=U1,
            NOM_CHAM="INDL_ELGA",
            NOM_CMP="DIR1",
            VALE_CALC=44.26588936223919,
            GROUP_MA="M1",
        ),
        _F(
            NUME_ORDRE=100,
            VALE_ABS="OUI",
            POINT=1,
            RESULTAT=U1,
            NOM_CHAM="INDL_ELGA",
            NOM_CMP="DIR2",
            VALE_CALC=44.265889362239186,
            GROUP_MA="M1",
        ),
        _F(
            NUME_ORDRE=100,
            VALE_ABS="OUI",
            POINT=1,
            RESULTAT=U1,
            NOM_CHAM="INDL_ELGA",
            NOM_CMP="DIR3",
            VALE_CALC=29.83638594712481,
            GROUP_MA="M1",
        ),
        _F(
            NUME_ORDRE=100,
            VALE_ABS="OUI",
            POINT=1,
            RESULTAT=U1,
            NOM_CHAM="INDL_ELGA",
            NOM_CMP="DIR4",
            VALE_CALC=29.836385947124818,
            GROUP_MA="M1",
        ),
    )
)

# ------------------------------------------------
# TEST DU MODULE DE RIGIDITE DE SECOND GRADIENT
# EN NON REGRESSION
# ------------------------------------------------

TEST_RESU(
    RESU=_F(
        NUME_ORDRE=100,
        POINT=1,
        RESULTAT=U1,
        NOM_CHAM="PDIL_ELGA",
        NOM_CMP="A1_LC2",
        VALE_CALC=1280913.5749857589,
        GROUP_MA="M1",
    )
)

FIN()
