# coding=utf-8
# --------------------------------------------------------------------
# Copyright (C) 1991 - 2025 - EDF R&D - www.code-aster.org
# This file is part of code_aster.
#
# code_aster is free software: you can redistribute it and/or modify
# it under the terms of the GNU General Public License as published by
# the Free Software Foundation, either version 3 of the License, or
# (at your option) any later version.
#
# code_aster is distributed in the hope that it will be useful,
# but WITHOUT ANY WARRANTY; without even the implied warranty of
# MERCHANTABILITY or FITNESS FOR A PARTICULAR PURPOSE.  See the
# GNU General Public License for more details.
#
# You should have received a copy of the GNU General Public License
# along with code_aster.  If not, see <http://www.gnu.org/licenses/>.
# --------------------------------------------------------------------

DEBUT(CODE="OUI")

# Read mesh
mesh0 = LIRE_MAILLAGE(FORMAT="MED", UNITE=20)

# Prepare mesh
mesh = CREA_MAILLAGE(MAILLAGE=mesh0, MODI_HHO=_F(TOUT="OUI"))
mesh = MODI_MAILLAGE(
    reuse=mesh, MAILLAGE=mesh, ORIE_PEAU=_F(GROUP_MA_PEAU=("FaceLeft", "FaceRight"))
)

# Select finite elements
model = AFFE_MODELE(
    AFFE=_F(MODELISATION=("3D_HHO",), FORMULATION="LINEAIRE", PHENOMENE="MECANIQUE", TOUT="OUI"),
    MAILLAGE=mesh,
)

# Material parameters
mater = DEFI_MATERIAU(ELAS=_F(E=10000000.0, NU=0.3))

matfield = AFFE_MATERIAU(AFFE=_F(MATER=(mater,), TOUT="OUI"), MODELE=model)

# Boundary conditions and loads
clamp = AFFE_CHAR_CINE(MECA_IMPO=_F(DX=0.0, DY=0.0, DZ=0.0, GROUP_MA=("FaceLeft",)), MODELE=model)

load = AFFE_CHAR_MECA(FORCE_FACE=_F(FZ=400.0, GROUP_MA=("FaceRight",)), MODELE=model)

# Calcul plastique linéaire
rampUnit = DEFI_FONCTION(NOM_PARA="INST", VALE=(0.0, 0.0, 1.0, 1.0))

timeStepper = DEFI_LIST_REEL(DEBUT=0.0, INTERVALLE=_F(JUSQU_A=1.0, NOMBRE=1))

times = DEFI_LIST_INST(
    DEFI_LIST=_F(LIST_INST=timeStepper), ECHEC=_F(ACTION="DECOUPE", EVENEMENT="ERREUR")
)

resuElas = STAT_NON_LINE(
    MODELE=model,
    CHAM_MATER=matfield,
    COMPORTEMENT=_F(DEFORMATION="PETIT", RELATION="ELAS", TOUT="OUI"),
    CONVERGENCE=_F(ITER_GLOB_MAXI=15),
    EXCIT=(
        _F(CHARGE=clamp, TYPE_CHARGE="FIXE_CSTE"),
        _F(CHARGE=load, FONC_MULT=rampUnit, TYPE_CHARGE="FIXE_CSTE"),
    ),
    INCREMENT=_F(LIST_INST=times),
    SOLVEUR=_F(METHODE="MUMPS", NPREC=9),
)

# Post-traitement
resuElas = CALC_CHAMP(
    reuse=resuElas,
    RESULTAT=resuElas,
    CONTRAINTE=("SIEF_NOEU"),
    FORCE=("FORC_NODA"),
    CRITERES=("SIEQ_ELGA", "SIEQ_NOEU"),
)

# IMPR_RESU(RESU=_F(RESULTAT=resuNoli), UNITE=80)

# Test des valeurs du calcul
# Valeurs de référence (référence: 3D overkill)
nodeISup_DEPLDZ_Refe = 15.840544838612029
nodeCSup_SIEFSIXX_Refe = -179988.34541461113
nodeESup_SIEFSIXX_Refe = -119999.92838937124
nodeGSup_SIEFSIXX_Refe = -60000.3165301384
nodeCSup_SIEQVMIS_Refe = 179942.7171255356
nodeESup_SIEQVMIS_Refe = 120010.95592273731
nodeGSup_SIEQVMIS_Refe = 60023.930380372374

# Valeurs calculées
nodeISup_DEPLDZ_Calc = 15.850660676834305
nodeCSup_SIEFSIXX_Calc = -180025.24769001425
nodeESup_SIEFSIXX_Calc = -120000.12541106681
nodeGSup_SIEFSIXX_Calc = -59999.327397210975
nodeCSup_SIEQVMIS_Calc = 179967.12317166722
nodeESup_SIEQVMIS_Calc = 120014.78154337435
nodeGSup_SIEQVMIS_Calc = 60032.832270634986

nodeISup_DEPLDZ_Tole = 0.01 * 6.4e-2
nodeCSup_SIEFSIXX_Tole = 0.01 * 2.1e-2
nodeESup_SIEFSIXX_Tole = 0.01 * 1.8e-4
nodeGSup_SIEFSIXX_Tole = 0.01 * 1.7e-3
nodeCSup_SIEQVMIS_Tole = 0.01 * 1.4e-2
nodeESup_SIEQVMIS_Tole = 0.01 * 3.2e-3
nodeGSup_SIEQVMIS_Tole = 0.01 * 1.5e-2

TEST_RESU(
    RESU=_F(
        GROUP_NO=("NodeISup",),
        INST=1.0,
        NOM_CHAM="HHO_DEPL",
        NOM_CMP="DZ",
        RESULTAT=resuElas,
        VALE_CALC=nodeISup_DEPLDZ_Calc,
        REFERENCE="AUTRE_ASTER",
        PRECISION=nodeISup_DEPLDZ_Tole,
        VALE_REFE=nodeISup_DEPLDZ_Refe,
    )
)

TEST_RESU(
    RESU=(
        _F(
            GROUP_NO=("NodeCSup",),
            INST=1.0,
            NOM_CHAM="SIEF_NOEU",
            NOM_CMP="SIXX",
            RESULTAT=resuElas,
            REFERENCE="AUTRE_ASTER",
            VALE_CALC=nodeCSup_SIEFSIXX_Calc,
            PRECISION=nodeCSup_SIEFSIXX_Tole,
            VALE_REFE=nodeCSup_SIEFSIXX_Refe,
        ),
        _F(
            GROUP_NO=("NodeESup",),
            INST=1.0,
            NOM_CHAM="SIEF_NOEU",
            NOM_CMP="SIXX",
            RESULTAT=resuElas,
            REFERENCE="AUTRE_ASTER",
            VALE_CALC=nodeESup_SIEFSIXX_Calc,
            PRECISION=nodeESup_SIEFSIXX_Tole,
            VALE_REFE=nodeESup_SIEFSIXX_Refe,
        ),
        _F(
            GROUP_NO=("NodeGSup",),
            INST=1.0,
            NOM_CHAM="SIEF_NOEU",
            NOM_CMP="SIXX",
            RESULTAT=resuElas,
            REFERENCE="AUTRE_ASTER",
            VALE_CALC=nodeGSup_SIEFSIXX_Calc,
            PRECISION=nodeGSup_SIEFSIXX_Tole,
            VALE_REFE=nodeGSup_SIEFSIXX_Refe,
        ),
    )
)

TEST_RESU(
    RESU=(
        _F(
            GROUP_NO=("NodeCSup",),
            INST=1.0,
            NOM_CHAM="SIEQ_NOEU",
            NOM_CMP="VMIS",
            RESULTAT=resuElas,
            REFERENCE="AUTRE_ASTER",
            VALE_CALC=nodeCSup_SIEQVMIS_Calc,
            PRECISION=nodeCSup_SIEQVMIS_Tole,
            VALE_REFE=nodeCSup_SIEQVMIS_Refe,
        ),
        _F(
            GROUP_NO=("NodeESup",),
            INST=1.0,
            NOM_CHAM="SIEQ_NOEU",
            NOM_CMP="VMIS",
            RESULTAT=resuElas,
            REFERENCE="AUTRE_ASTER",
            VALE_CALC=nodeESup_SIEQVMIS_Calc,
            PRECISION=nodeESup_SIEQVMIS_Tole,
            VALE_REFE=nodeESup_SIEQVMIS_Refe,
        ),
        _F(
            GROUP_NO=("NodeGSup",),
            INST=1.0,
            NOM_CHAM="SIEQ_NOEU",
            NOM_CMP="VMIS",
            RESULTAT=resuElas,
            REFERENCE="AUTRE_ASTER",
            VALE_CALC=nodeGSup_SIEQVMIS_Calc,
            PRECISION=nodeGSup_SIEQVMIS_Tole,
            VALE_REFE=nodeGSup_SIEQVMIS_Refe,
        ),
    )
)

FIN()
