# coding=utf-8
# --------------------------------------------------------------------
# Copyright (C) 1991 - 2025 - EDF R&D - www.code-aster.org
# This file is part of code_aster.
#
# code_aster is free software: you can redistribute it and/or modify
# it under the terms of the GNU General Public License as published by
# the Free Software Foundation, either version 3 of the License, or
# (at your option) any later version.
#
# code_aster is distributed in the hope that it will be useful,
# but WITHOUT ANY WARRANTY; without even the implied warranty of
# MERCHANTABILITY or FITNESS FOR A PARTICULAR PURPOSE.  See the
# GNU General Public License for more details.
#
# You should have received a copy of the GNU General Public License
# along with code_aster.  If not, see <http://www.gnu.org/licenses/>.
# --------------------------------------------------------------------

#                     AVEC LA LOI DE HUJEUX
# PRESSION DE CONSOLIDATION P0 = 100KPA


DEBUT(CODE="OUI", ERREUR=_F(ALARME="EXCEPTION"), DEBUG=_F(SDVERI="NON"))
# SDVERI='NON' car la verification est trop couteuse en CPU

# modules mecaniques [kPa]
K = 516.2e6
G = 238.2e6
# =>
E = 9.0 * K * G / (3.0 * K + G)

YOUNG_F = DEFI_FONCTION(
    NOM_PARA="Y",
    NOM_RESU="YOUNG",
    VALE=(0.0, E, 0.5, E, 1.0, E),
    PROL_DROITE="CONSTANT",
    PROL_GAUCHE="CONSTANT",
)

NU_FONC = DEFI_CONSTANTE(VALE=(3.0 * K - 2.0 * G) / (6.0 * K + 2.0 * G))

print("young=", YOUNG_F, " /// nu=", NU_FONC)

# pression de preconsolidation [en kPa]
P0 = 100000.0


# ***********************************************************************
#    MAILLAGE + MODELE
# ***********************************************************************
MAILLAGE = LIRE_MAILLAGE(FORMAT="MED")

MODELE = AFFE_MODELE(
    MAILLAGE=MAILLAGE, AFFE=_F(TOUT="OUI", PHENOMENE="MECANIQUE", MODELISATION="3D")
)

MAILLAGE = MODI_MAILLAGE(
    reuse=MAILLAGE,
    MAILLAGE=MAILLAGE,
    ORIE_PEAU=_F(
        GROUP_MA_PEAU=("DEVANT", "DROIT", "ARRIERE", "GAUCHE", "BAS", "HAUT", "APPUI", "COTE")
    ),
    INFO=1,
)

CHGEOM = CREA_CHAMP(
    TYPE_CHAM="NOEU_GEOM_R", OPERATION="EXTR", MAILLAGE=MAILLAGE, NOM_CHAM="GEOMETRIE"
)

# ***********************************************************************
#    INCREMENTS DE TEMPS
# ***********************************************************************
TEMPS0 = DEFI_LIST_REEL(
    DEBUT=-20.0, INTERVALLE=(_F(JUSQU_A=-10.0, NOMBRE=1), _F(JUSQU_A=0.0, NOMBRE=100))
)

TEMPS1 = DEFI_LIST_REEL(
    DEBUT=0.0,
    INTERVALLE=(
        _F(JUSQU_A=1.0, NOMBRE=10),
        _F(JUSQU_A=7.0, NOMBRE=60),
        _F(JUSQU_A=10.0, NOMBRE=30),
    ),
)
TEMPS2 = DEFI_LIST_REEL(
    DEBUT=10.0,
    INTERVALLE=(
        _F(JUSQU_A=11.0, NOMBRE=10),
        _F(JUSQU_A=17.0, NOMBRE=60),
        _F(JUSQU_A=20.0, NOMBRE=30),
    ),
)

TEMPS3 = DEFI_LIST_REEL(DEBUT=0.0, INTERVALLE=_F(JUSQU_A=10.0, NOMBRE=200))


# ***********************************************************************
#    MATERIAU : SOL
# ***********************************************************************
SOL0 = DEFI_MATERIAU(
    ELAS_FO=_F(E=YOUNG_F, NU=NU_FONC),
    HUJEUX=_F(
        N=0.4,
        BETA=24.0,
        D=2.5,
        B=0.2,
        PHI=33.0,
        ANGDIL=33.0,
        PCO=-1.0e6,
        PREF=-1.0e6,
        AMON=0.008,
        ACYC=0.0001,
        CMON=0.2,
        CCYC=0.1,
        RD_ELA=0.005,
        RI_ELA=0.001,
        RHYS=0.05,
        RMOB=0.9,
        XM=1.0,
        RD_CYC=0.005,
        RI_CYC=0.001,
        DILA=1.0,
    ),
)

SOL = DEFI_MATERIAU(
    ELAS_FO=_F(E=YOUNG_F, NU=NU_FONC),
    HUJEUX=_F(
        N=0.4,
        BETA=24.0,
        D=2.5,
        B=0.2,
        PHI=33.0,
        ANGDIL=33.0,
        PCO=-1.0e6,
        PREF=-1.0e6,
        AMON=0.008,
        ACYC=0.0001,
        CMON=0.2,
        CCYC=0.1,
        RD_ELA=0.005,
        RI_ELA=0.001,
        RHYS=0.05,
        RMOB=0.9,
        XM=1.0,
        RD_CYC=0.005,
        RI_CYC=0.001,
        DILA=1.0,
    ),
)

CHMAT0 = AFFE_MATERIAU(
    MAILLAGE=MAILLAGE,
    AFFE=_F(TOUT="OUI", MATER=SOL0),
    AFFE_VARC=_F(NOM_VARC="GEOM", CHAM_GD=CHGEOM),
)

CHMAT = AFFE_MATERIAU(
    MAILLAGE=MAILLAGE, AFFE=_F(TOUT="OUI", MATER=SOL), AFFE_VARC=_F(NOM_VARC="GEOM", CHAM_GD=CHGEOM)
)


# ***********************************************************************
#    CHARGEMENT MECANIQUE : FORCE DE COMPRESSION + DDL IMPOSES
# ***********************************************************************
CHAR_U1 = AFFE_CHAR_MECA(MODELE=MODELE, PRES_REP=_F(GROUP_MA=("COTE", "APPUI"), PRES=1.0))

CHAR_U2 = AFFE_CHAR_MECA(MODELE=MODELE, PRES_REP=_F(GROUP_MA=("COTE", "APPUI"), PRES=-1.0))


DEPL_1 = AFFE_CHAR_MECA(
    MODELE=MODELE,
    FACE_IMPO=(
        _F(GROUP_MA="BAS", DZ=0.0),
        _F(GROUP_MA="GAUCHE", DX=0.0),
        _F(GROUP_MA="DEVANT", DY=0.0),
    ),
)

COEF0 = DEFI_FONCTION(NOM_PARA="INST", PROL_DROITE="CONSTANT", VALE=(-20.0, 0.0, -10.0, P0))

# ***********************************************************************
#    PRECONSOLIDATION ELASTIQUE JUSQU'A P0 (100 kPa)
# ***********************************************************************
U0M = STAT_NON_LINE(
    MODELE=MODELE,
    CHAM_MATER=CHMAT0,
    EXCIT=(_F(CHARGE=CHAR_U1, FONC_MULT=COEF0), _F(CHARGE=DEPL_1)),
    COMPORTEMENT=_F(RELATION="ELAS"),
    NEWTON=_F(MATRICE="ELASTIQUE"),
    CONVERGENCE=_F(RESI_GLOB_RELA=1.0e-6, ITER_GLOB_MAXI=20),
    INCREMENT=_F(LIST_INST=TEMPS0, INST_FIN=-10.0),
)
# ----------- FIN

SIG0 = CREA_CHAMP(
    INFO=2,
    TYPE_CHAM="ELGA_SIEF_R",
    OPERATION="EXTR",
    RESULTAT=U0M,
    NOM_CHAM="SIEF_ELGA",
    INST=-10.0,
)

COEF1 = DEFI_FONCTION(
    NOM_PARA="INST",
    PROL_DROITE="CONSTANT",
    VALE=(-10.0, P0, 0.0, 3 * P0, 10.0, 3 * P0, 20.0, 3 * P0 + 2.4e5),
)

COEF2 = DEFI_FONCTION(NOM_PARA="INST", PROL_DROITE="CONSTANT", VALE=(0.0, 0.0, 10.0, 2 * P0))

DEFLIST0 = DEFI_LIST_INST(
    DEFI_LIST=_F(LIST_INST=TEMPS0),
    ECHEC=_F(ACTION="DECOUPE", SUBD_METHODE="MANUEL", SUBD_PAS=10, SUBD_PAS_MINI=0.00001),
)


DEFLIST1 = DEFI_LIST_INST(
    DEFI_LIST=_F(LIST_INST=TEMPS1),
    ECHEC=_F(ACTION="DECOUPE", SUBD_METHODE="MANUEL", SUBD_PAS=10, SUBD_PAS_MINI=0.00001),
)

# ***********************************************************************
#    CONSOLIDATION PLASTIQUE DRAINE JUSQU'A 300KPA
# ***********************************************************************
U0 = STAT_NON_LINE(
    MODELE=MODELE,
    CHAM_MATER=CHMAT,
    EXCIT=(_F(CHARGE=CHAR_U1, FONC_MULT=COEF1), _F(CHARGE=DEPL_1)),
    ETAT_INIT=_F(SIGM=SIG0),
    COMPORTEMENT=_F(
        RELATION="HUJEUX",
        RESI_INTE=1.0e-8,
        ALGO_INTE="SPECIFIQUE",
        ITER_INTE_MAXI=20,
        ITER_INTE_PAS=-5,
    ),
    NEWTON=_F(MATRICE="TANGENTE", REAC_ITER=1),
    CONVERGENCE=_F(RESI_GLOB_RELA=1.0e-6, ITER_GLOB_MAXI=20),
    ARCHIVAGE=_F(LIST_INST=TEMPS0),
    INCREMENT=_F(LIST_INST=DEFLIST0, INST_INIT=-10.0, INST_FIN=0.0),
)

SIG1 = CREA_CHAMP(
    INFO=2, TYPE_CHAM="ELGA_SIEF_R", OPERATION="EXTR", RESULTAT=U0, NOM_CHAM="SIEF_ELGA", INST=0.0
)

VAR1 = CREA_CHAMP(
    INFO=2, TYPE_CHAM="ELGA_VARI_R", OPERATION="EXTR", RESULTAT=U0, NOM_CHAM="VARI_ELGA", INST=0.0
)

# ***********************************************************************
#    DECHARGE DE CONSOLIDATION JUSQU'A 100KPa
# ***********************************************************************
U1 = STAT_NON_LINE(
    MODELE=MODELE,
    CHAM_MATER=CHMAT,
    EXCIT=(
        _F(CHARGE=CHAR_U1, FONC_MULT=COEF1),
        _F(CHARGE=CHAR_U2, FONC_MULT=COEF2),
        _F(CHARGE=DEPL_1),
    ),
    ETAT_INIT=_F(SIGM=SIG1, VARI=VAR1),
    COMPORTEMENT=_F(
        RELATION="HUJEUX",
        ALGO_INTE="SPECIFIQUE",
        RESI_INTE=1.0e-8,
        ITER_INTE_PAS=-5,
        ITER_INTE_MAXI=20,
    ),
    NEWTON=_F(MATRICE="TANGENTE", REAC_ITER=1),
    CONVERGENCE=_F(RESI_GLOB_RELA=1.0e-6, ITER_GLOB_MAXI=20),
    ARCHIVAGE=_F(LIST_INST=TEMPS1),
    INCREMENT=_F(LIST_INST=DEFLIST1, INST_INIT=0.0, INST_FIN=10.0),
)

SIG2 = CREA_CHAMP(
    INFO=2, TYPE_CHAM="ELGA_SIEF_R", OPERATION="EXTR", RESULTAT=U1, NOM_CHAM="SIEF_ELGA", INST=10.0
)

VAR2 = CREA_CHAMP(
    INFO=2, TYPE_CHAM="ELGA_VARI_R", OPERATION="EXTR", RESULTAT=U1, NOM_CHAM="VARI_ELGA", INST=10.0
)


# ***********************************************************************
#    CONSOLIDATION CYCLIQUE RETOUR JUSQU'A 340KPA
# ***********************************************************************

DEFLIST2 = DEFI_LIST_INST(
    DEFI_LIST=_F(LIST_INST=TEMPS2),
    ECHEC=_F(
        EVENEMENT="ERREUR",
        ACTION="DECOUPE",
        SUBD_METHODE="MANUEL",
        SUBD_PAS=10,
        SUBD_PAS_MINI=0.00001,
    ),
)

U2 = STAT_NON_LINE(
    MODELE=MODELE,
    CHAM_MATER=CHMAT,
    EXCIT=(
        _F(CHARGE=CHAR_U1, FONC_MULT=COEF1),
        _F(CHARGE=CHAR_U2, FONC_MULT=COEF2),
        _F(CHARGE=DEPL_1),
    ),
    ETAT_INIT=_F(SIGM=SIG2, VARI=VAR2),
    COMPORTEMENT=_F(
        RELATION="HUJEUX",
        ALGO_INTE="SPECIFIQUE",
        RESI_INTE=1.0e-8,
        ITER_INTE_PAS=-5,
        ITER_INTE_MAXI=20,
    ),
    NEWTON=_F(MATRICE="TANGENTE", REAC_ITER=1),
    CONVERGENCE=_F(RESI_GLOB_RELA=1.0e-6, ITER_GLOB_MAXI=10),
    ARCHIVAGE=_F(LIST_INST=TEMPS2),
    INCREMENT=_F(LIST_INST=DEFLIST2, INST_INIT=10.0, INST_FIN=20.0),
)


# *******************************************************************************
#                     POST-TRAITEMENT des RESULTATS
# *******************************************************************************

# *******************************************************************************
#                                     U0
# *******************************************************************************

U0 = CALC_CHAMP(
    reuse=U0,
    CONTRAINTE=("SIGM_ELNO"),
    VARI_INTERNE=("VARI_ELNO"),
    DEFORMATION=("EPSI_ELNO"),
    RESULTAT=U0,
)


U0 = CALC_CHAMP(
    reuse=U0, CONTRAINTE="SIGM_NOEU", VARI_INTERNE="VARI_NOEU", DEFORMATION="EPSI_NOEU", RESULTAT=U0
)

TAB_SIG0 = POST_RELEVE_T(
    ACTION=_F(
        INTITULE="SIGM_NOEU",
        GROUP_NO="C",
        RESULTAT=U0,
        NOM_CHAM="SIGM_NOEU",
        NOM_CMP="SIZZ",
        OPERATION="EXTRACTION",
    )
)

TAB_VAR0 = POST_RELEVE_T(
    ACTION=_F(
        INTITULE="VARI_NOEU",
        GROUP_NO="C",
        RESULTAT=U0,
        NOM_CHAM="VARI_NOEU",
        NOM_CMP=("V4", "V8", "V23", "V32"),
        OPERATION="EXTRACTION",
    )
)

TAB_VAR0 = CALC_TABLE(
    reuse=TAB_VAR0, TABLE=TAB_VAR0, ACTION=_F(OPERATION="COMB", TABLE=TAB_SIG0, NOM_PARA="INST")
)
IMPR_TABLE(TABLE=TAB_VAR0)

# *******************************************************************************
#                                      U1
# *******************************************************************************

U1 = CALC_CHAMP(
    reuse=U1,
    CONTRAINTE=("SIGM_ELNO"),
    VARI_INTERNE=("VARI_ELNO"),
    DEFORMATION=("EPSI_ELNO"),
    RESULTAT=U1,
)


U1 = CALC_CHAMP(
    reuse=U1, CONTRAINTE="SIGM_NOEU", VARI_INTERNE="VARI_NOEU", DEFORMATION="EPSI_NOEU", RESULTAT=U1
)

TAB_SIG1 = POST_RELEVE_T(
    ACTION=_F(
        INTITULE="EQUI_NOEU_DEPL",
        GROUP_NO="C",
        RESULTAT=U1,
        NOM_CHAM="SIGM_NOEU",
        NOM_CMP="SIZZ",
        OPERATION="EXTRACTION",
    )
)

TAB_VAR1 = POST_RELEVE_T(
    ACTION=_F(
        INTITULE="VARI_NOEU",
        GROUP_NO="C",
        RESULTAT=U1,
        NOM_CHAM="VARI_NOEU",
        NOM_CMP=("V4", "V8", "V23", "V32"),
        OPERATION="EXTRACTION",
    )
)

TAB_VAR1 = CALC_TABLE(
    reuse=TAB_VAR1, TABLE=TAB_VAR1, ACTION=_F(OPERATION="COMB", TABLE=TAB_SIG1, NOM_PARA="INST")
)
IMPR_TABLE(TABLE=TAB_VAR1)
# *******************************************************************************
#                                      U2
# *******************************************************************************

U2 = CALC_CHAMP(
    reuse=U2,
    CONTRAINTE=("SIGM_ELNO"),
    VARI_INTERNE=("VARI_ELNO"),
    DEFORMATION=("EPSI_ELNO"),
    RESULTAT=U2,
)


U2 = CALC_CHAMP(
    reuse=U2, CONTRAINTE="SIGM_NOEU", VARI_INTERNE="VARI_NOEU", DEFORMATION="EPSI_NOEU", RESULTAT=U2
)

TAB_SIG2 = POST_RELEVE_T(
    ACTION=_F(
        INTITULE="EQUI_NOEU_DEPL",
        GROUP_NO="C",
        RESULTAT=U2,
        NOM_CHAM="SIGM_NOEU",
        NOM_CMP="SIZZ",
        OPERATION="EXTRACTION",
    )
)

TAB_VAR2 = POST_RELEVE_T(
    ACTION=_F(
        INTITULE="VARI_NOEU",
        GROUP_NO="C",
        RESULTAT=U2,
        NOM_CHAM="VARI_NOEU",
        NOM_CMP=("V4", "V8", "V23", "V32"),
        OPERATION="EXTRACTION",
    )
)

TAB_VAR2 = CALC_TABLE(
    reuse=TAB_VAR2, TABLE=TAB_VAR2, ACTION=_F(OPERATION="COMB", TABLE=TAB_SIG2, NOM_PARA="INST")
)

IMPR_TABLE(TABLE=TAB_VAR2)
# *******************************************************************************
#                                  TEST_RESU
# *******************************************************************************

# TEST SUR LA VALEUR DU FACTEUR DE MOBILISATION R4 PAR RAPPORT AUX REFERENCES LAWYER

TEST_TABLE(
    CRITERE="RELATIF",
    REFERENCE="SOURCE_EXTERNE",
    PRECISION=1.0e-2,
    VALE_CALC=0.067988291217105,
    VALE_REFE=0.068000000000000005,
    NOM_PARA="V4",
    TABLE=TAB_VAR0,
    FILTRE=_F(CRITERE="ABSOLU", PRECISION=1, NOM_PARA="SIZZ", VALE=-200000),
)

TEST_TABLE(
    CRITERE="RELATIF",
    REFERENCE="SOURCE_EXTERNE",
    PRECISION=1.0e-2,
    VALE_CALC=0.0882492414570339,
    VALE_REFE=0.088300000000000003,
    NOM_PARA="V4",
    TABLE=TAB_VAR0,
    FILTRE=_F(CRITERE="ABSOLU", PRECISION=1, NOM_PARA="SIZZ", VALE=-300000),
)

TEST_TABLE(
    CRITERE="RELATIF",
    REFERENCE="SOURCE_EXTERNE",
    PRECISION=1.0e-2,
    VALE_CALC=0.0882492414570339,
    VALE_REFE=0.088300000000000003,
    NOM_PARA="V4",
    TABLE=TAB_VAR1,
    FILTRE=_F(CRITERE="ABSOLU", PRECISION=1, NOM_PARA="SIZZ", VALE=-200000),
)

TEST_TABLE(
    CRITERE="RELATIF",
    REFERENCE="SOURCE_EXTERNE",
    PRECISION=1.0e-2,
    VALE_CALC=0.0882492414570339,
    VALE_REFE=0.088300000000000003,
    NOM_PARA="V4",
    TABLE=TAB_VAR1,
    FILTRE=_F(CRITERE="ABSOLU", PRECISION=1, NOM_PARA="SIZZ", VALE=-100000),
)

TEST_TABLE(
    CRITERE="RELATIF",
    REFERENCE="SOURCE_EXTERNE",
    PRECISION=1.0e-2,
    VALE_CALC=0.0882492414570339,
    VALE_REFE=0.088300000000000003,
    NOM_PARA="V4",
    TABLE=TAB_VAR2,
    FILTRE=_F(CRITERE="ABSOLU", PRECISION=1, NOM_PARA="SIZZ", VALE=-220000),
)

TEST_TABLE(
    CRITERE="RELATIF",
    REFERENCE="SOURCE_EXTERNE",
    PRECISION=1.0e-2,
    VALE_CALC=0.09482102788490528,
    VALE_REFE=0.094799999999999995,
    NOM_PARA="V4",
    TABLE=TAB_VAR2,
    FILTRE=_F(CRITERE="ABSOLU", PRECISION=1, NOM_PARA="SIZZ", VALE=-340000),
)

# TEST SUR LA VALEUR DU FACTEUR DE MOBILISATION R4C PAR RAPPORT AUX REFERENCES LAWYER

TEST_TABLE(
    CRITERE="RELATIF",
    REFERENCE="SOURCE_EXTERNE",
    PRECISION=1.0e-2,
    VALE_CALC=1.00000000e-03,
    VALE_REFE=1.0e-3,
    NOM_PARA="V8",
    TABLE=TAB_VAR0,
    FILTRE=_F(CRITERE="ABSOLU", PRECISION=1, NOM_PARA="SIZZ", VALE=-200000),
)

TEST_TABLE(
    CRITERE="RELATIF",
    REFERENCE="SOURCE_EXTERNE",
    PRECISION=1.0e-2,
    VALE_CALC=1.00000000e-03,
    VALE_REFE=1.0e-3,
    NOM_PARA="V8",
    TABLE=TAB_VAR0,
    FILTRE=_F(CRITERE="ABSOLU", PRECISION=1, NOM_PARA="SIZZ", VALE=-300000),
)

TEST_TABLE(
    CRITERE="RELATIF",
    REFERENCE="SOURCE_EXTERNE",
    PRECISION=1.0e-2,
    VALE_CALC=0.021402384110301816,
    VALE_REFE=0.021399999999999999,
    NOM_PARA="V8",
    TABLE=TAB_VAR1,
    FILTRE=_F(CRITERE="ABSOLU", PRECISION=1, NOM_PARA="SIZZ", VALE=-200000),
)

TEST_TABLE(
    CRITERE="RELATIF",
    REFERENCE="SOURCE_EXTERNE",
    PRECISION=1.0e-2,
    VALE_CALC=0.04910898435523134,
    VALE_REFE=0.049099999999999998,
    NOM_PARA="V8",
    TABLE=TAB_VAR1,
    FILTRE=_F(CRITERE="ABSOLU", PRECISION=1, NOM_PARA="SIZZ", VALE=-100000),
)

TEST_TABLE(
    CRITERE="RELATIF",
    REFERENCE="SOURCE_EXTERNE",
    PRECISION=1.0e-2,
    VALE_CALC=0.032983867959760146,
    VALE_REFE=0.032899999999999999,
    NOM_PARA="V8",
    TABLE=TAB_VAR2,
    FILTRE=_F(CRITERE="ABSOLU", PRECISION=1, NOM_PARA="SIZZ", VALE=-220000),
)

TEST_TABLE(
    CRITERE="RELATIF",
    REFERENCE="SOURCE_EXTERNE",
    PRECISION=1.0e-2,
    VALE_CALC=0.04910644492964672,
    VALE_REFE=0.049099999999999998,
    NOM_PARA="V8",
    TABLE=TAB_VAR2,
    FILTRE=_F(CRITERE="ABSOLU", PRECISION=1, NOM_PARA="SIZZ", VALE=-340000),
)

# TEST SUR LA DEFORMATION VOLUMIQUE PLASTIQUE PAR RAPPORT AUX REFERENCES LAWYER

TEST_TABLE(
    CRITERE="RELATIF",
    REFERENCE="SOURCE_EXTERNE",
    PRECISION=1.0e-2,
    VALE_CALC=-0.006778797632429907,
    VALE_REFE=-6.7799999999999996e-3,
    NOM_PARA="V23",
    TABLE=TAB_VAR0,
    FILTRE=_F(CRITERE="ABSOLU", PRECISION=1, NOM_PARA="SIZZ", VALE=-200000),
)

TEST_TABLE(
    CRITERE="RELATIF",
    REFERENCE="SOURCE_EXTERNE",
    PRECISION=1.0e-2,
    VALE_CALC=-0.012805277101328935,
    VALE_REFE=-0.012800000000000001,
    NOM_PARA="V23",
    TABLE=TAB_VAR0,
    FILTRE=_F(CRITERE="ABSOLU", PRECISION=1, NOM_PARA="SIZZ", VALE=-300000),
)

TEST_TABLE(
    CRITERE="RELATIF",
    REFERENCE="SOURCE_EXTERNE",
    PRECISION=1.0e-2,
    VALE_CALC=-0.007484263907572969,
    VALE_REFE=-7.4900000000000001e-3,
    NOM_PARA="V23",
    TABLE=TAB_VAR1,
    FILTRE=_F(CRITERE="ABSOLU", PRECISION=1, NOM_PARA="SIZZ", VALE=-200000),
)

TEST_TABLE(
    CRITERE="RELATIF",
    REFERENCE="SOURCE_EXTERNE",
    PRECISION=0.040000000000000001,
    VALE_CALC=-0.0009053280096073449,
    VALE_REFE=-9.1500000000000001e-4,
    NOM_PARA="V23",
    TABLE=TAB_VAR1,
    FILTRE=_F(CRITERE="ABSOLU", PRECISION=1, NOM_PARA="SIZZ", VALE=-100000),
)

TEST_TABLE(
    CRITERE="RELATIF",
    REFERENCE="SOURCE_EXTERNE",
    PRECISION=1.0e-2,
    VALE_CALC=-0.00828950979385899,
    VALE_REFE=-8.2900000000000005e-3,
    NOM_PARA="V23",
    TABLE=TAB_VAR2,
    FILTRE=_F(CRITERE="ABSOLU", PRECISION=1, NOM_PARA="SIZZ", VALE=-220000),
)

TEST_TABLE(
    CRITERE="RELATIF",
    REFERENCE="SOURCE_EXTERNE",
    PRECISION=1.0e-2,
    VALE_CALC=-0.015027654119041887,
    VALE_REFE=-0.014999999999999999,
    NOM_PARA="V23",
    TABLE=TAB_VAR2,
    FILTRE=_F(CRITERE="ABSOLU", PRECISION=1, NOM_PARA="SIZZ", VALE=-340000),
)

FIN()
