# coding=utf-8
# --------------------------------------------------------------------
# Copyright (C) 1991 - 2025 - EDF R&D - www.code-aster.org
# This file is part of code_aster.
#
# code_aster is free software: you can redistribute it and/or modify
# it under the terms of the GNU General Public License as published by
# the Free Software Foundation, either version 3 of the License, or
# (at your option) any later version.
#
# code_aster is distributed in the hope that it will be useful,
# but WITHOUT ANY WARRANTY; without even the implied warranty of
# MERCHANTABILITY or FITNESS FOR A PARTICULAR PURPOSE.  See the
# GNU General Public License for more details.
#
# You should have received a copy of the GNU General Public License
# along with code_aster.  If not, see <http://www.gnu.org/licenses/>.
# --------------------------------------------------------------------

DEBUT(CODE="OUI", ERREUR=_F(ALARME="EXCEPTION"), DEBUG=_F(SDVERI="OUI"))

# ......................................................................
# CUBE EN TRACTION SIMPLE CALCUL 3D
# DEFORMATION IMPOSEE ET VITESSE DE DEFORMATION CONSTANTE
# LOI VISC_TAHERI
# ......................................................................

MAIL = LIRE_MAILLAGE(FORMAT="ASTER")

MAT = DEFI_MATERIAU(
    ELAS=_F(E=200.0e3, NU=0.3),
    LEMAITRE=_F(N=10.8, UN_SUR_K=6.9e-4, UN_SUR_M=0.102),
    TAHERI=_F(
        R_0=1.0e-3,
        # ON MET R_O DIFFERENT DE 0 POUR NE PAS AVOIR UNE DIVISION PAR 0
        # DANS NMTADP.F A LA LIGNE 62.
        ALPHA=0.0,
        M=1.0,
        A=0.0,
        B=0.0,
        C1=0.0,
        C_INF=0.0,
        S=900.0,
    ),
)

CM = AFFE_MATERIAU(MAILLAGE=MAIL, AFFE=_F(TOUT="OUI", MATER=MAT))

MOMECA = AFFE_MODELE(MAILLAGE=MAIL, AFFE=_F(TOUT="OUI", MODELISATION="3D", PHENOMENE="MECANIQUE"))

CHMECA = AFFE_CHAR_MECA(
    MODELE=MOMECA,
    FACE_IMPO=(
        _F(GROUP_MA="DEVANT", DZ=0.0),
        _F(GROUP_MA="BAS", DY=0.0),
        _F(GROUP_MA="HAUT", DY=1.0),
        _F(GROUP_MA="GAUCHE", DX=0),
    ),
)

CHMECA2 = AFFE_CHAR_MECA(MODELE=MOMECA, FORCE_FACE=_F(GROUP_MA="HAUT", FY=1))

FDEPL = DEFI_FONCTION(
    NOM_PARA="INST", PROL_DROITE="EXCLU", PROL_GAUCHE="EXCLU", VALE=(0.0, 0, 240.0, 0.5)
)

L_INST = DEFI_LIST_REEL(DEBUT=0.0, INTERVALLE=(_F(JUSQU_A=240.0, NOMBRE=30),))

U = STAT_NON_LINE(
    MODELE=MOMECA,
    CHAM_MATER=CM,
    EXCIT=(_F(CHARGE=CHMECA, FONC_MULT=FDEPL),),
    COMPORTEMENT=_F(RELATION="VISC_TAHERI", ITER_INTE_MAXI=100),
    NEWTON=_F(MATRICE="TANGENTE", REAC_ITER=1),
    INCREMENT=_F(LIST_INST=L_INST),
    CONVERGENCE=_F(RESI_GLOB_RELA=1.0e-6, ITER_GLOB_MAXI=25),
)

U = CALC_CHAMP(
    reuse=U, CONTRAINTE=("SIGM_ELNO"), DEFORMATION=("EPSI_ELNO", "EPSP_ELNO"), RESULTAT=U
)


TEST_RESU(
    RESU=(
        _F(
            INST=40.0,
            REFERENCE="AUTRE_ASTER",
            RESULTAT=U,
            NOM_CHAM="SIGM_ELNO",
            GROUP_NO="N6",
            NOM_CMP="SIYY",
            VALE_CALC=632.293250581,
            VALE_REFE=632.29324999999994,
            GROUP_MA="M1",
        ),
        _F(
            INST=240.0,
            REFERENCE="AUTRE_ASTER",
            RESULTAT=U,
            NOM_CHAM="SIGM_ELNO",
            GROUP_NO="N6",
            NOM_CMP="SIYY",
            VALE_CALC=761.749298017,
            VALE_REFE=761.74929999999995,
            GROUP_MA="M1",
        ),
    )
)

FIN()
