# coding=utf-8
# --------------------------------------------------------------------
# Copyright (C) 1991 - 2025 - EDF R&D - www.code-aster.org
# This file is part of code_aster.
#
# code_aster is free software: you can redistribute it and/or modify
# it under the terms of the GNU General Public License as published by
# the Free Software Foundation, either version 3 of the License, or
# (at your option) any later version.
#
# code_aster is distributed in the hope that it will be useful,
# but WITHOUT ANY WARRANTY; without even the implied warranty of
# MERCHANTABILITY or FITNESS FOR A PARTICULAR PURPOSE.  See the
# GNU General Public License for more details.
#
# You should have received a copy of the GNU General Public License
# along with code_aster.  If not, see <http://www.gnu.org/licenses/>.
# --------------------------------------------------------------------

#

DEBUT(CODE="OUI", DEBUG=_F(SDVERI="OUI"))

### ON VEUT RETROUVER LE MEME RESULTAT AVEC CALC_FATIGUE DE CAS-TEST SSLV135d
SIGMXX = DEFI_FONCTION(
    NOM_PARA="INST",
    VALE=(
        # Partie monotone
        #                                   0     ,  0     ,
        #                                   0.25  ,  50    ,
        #                                   0.5   ,  100   ,
        #                                   0.75  ,  150   ,
        1,
        200,
        1.25,
        150,
        1.5,
        100,
        1.75,
        50,
        2,
        0,
        2.25,
        -50,
        2.5,
        -100,
        2.75,
        -150,
# ... 18 like lines cut
    ),
)

ZERO = DEFI_FONCTION(
    NOM_PARA="INST",
    VALE=(
        #                                   0     ,  0     ,
        #                                   0.25  ,  0    ,
        #                                   0.5   ,  0   ,
        #                                   0.75  ,  0   ,
        1,
        0,
        1.25,
        0,
        1.5,
        0,
        1.75,
        0,
        2,
        0,
        2.25,
        0,
        2.5,
        0,
        2.75,
        0,
# ... 18 like lines cut
    ),
)

EPSTXX = DEFI_FONCTION(
    NOM_PARA="INST",
    VALE=(
        #                                   0     ,   0       ,
        #                                   0.25  ,   0.00025 ,
        #                                   0.5   ,   0.0005  ,
        #                                   0.75  ,   0.00075 ,
        1,
        0.00175,
        1.25,
        0.0015,
        1.5,
        0.00125,
        1.75,
        0.001,
        2,
        0.00075,
        2.25,
        0.0005,
        2.5,
        0.00025,
        2.75,
        -0.00075,
# ... 18 like lines cut
    ),
)

EPSTYY = DEFI_FONCTION(
    NOM_PARA="INST",
    VALE=(
        #                                   0     ,0         ,
        #                                   0.25  ,-0.000075 ,
        #                                   0.5   ,-0.00015  ,
        #                                   0.75  ,-0.000225 ,
        1,
        -0.000675,
        1.25,
        -0.0006,
        1.5,
        -0.000525,
        1.75,
        -0.00045,
        2,
        -0.000375,
        2.25,
        -0.0003,
        2.5,
        -0.000225,
        2.75,
        0.000225,
# ... 18 like lines cut
    ),
)

EPSTZZ = DEFI_FONCTION(
    NOM_PARA="INST",
    VALE=(
        #                                   0     ,0         ,
        #                                   0.25  ,-0.000075 ,
        #                                   0.5   ,-0.00015  ,
        #                                   0.75  ,-0.000225 ,
        1,
        -0.000675,
        1.25,
        -0.0006,
        1.5,
        -0.000525,
        1.75,
        -0.00045,
        2,
        -0.000375,
        2.25,
        -0.0003,
        2.5,
        -0.000225,
        2.75,
        0.000225,
# ... 18 like lines cut
    ),
)

EPSPXX = DEFI_FONCTION(
    NOM_PARA="INST",
    VALE=(
        #                                   0     , 0        ,
        #                                   0.25  , 0        ,
        #                                   0.5   , 0        ,
        #                                   0.75  , 0        ,
        1,
        0.00075,
        1.25,
        0.00075,
        1.5,
        0.00075,
        1.75,
        0.00075,
        2,
        0.00075,
        2.25,
        0.00075,
        2.5,
        0.00075,
        2.75,
        0,
# ... 18 like lines cut
    ),
)

EPSPYY = DEFI_FONCTION(
    NOM_PARA="INST",
    VALE=(
        #                                   0     , 0        ,
        #                                   0.25  , 0         ,
        #                                   0.5   , 0        ,
        #                                   0.75  , 0        ,
        1,
        -0.000375,
        1.25,
        -0.000375,
        1.5,
        -0.000375,
        1.75,
        -0.000375,
        2,
        -0.000375,
        2.25,
        -0.000375,
        2.5,
        -0.000375,
        2.75,
        -0,
# ... 18 like lines cut
    ),
)

EPSPZZ = DEFI_FONCTION(
    NOM_PARA="INST",
    VALE=(
        #                                   0     , 0         ,
        #                                   0.25  , 0        ,
        #                                   0.5   , 0        ,
        #                                   0.75  , 0        ,
        1,
        -0.000375,
        1.25,
        -0.000375,
        1.5,
        -0.000375,
        1.75,
        -0.000375,
        2,
        -0.000375,
        2.25,
        -0.000375,
        2.5,
        -0.000375,
        2.75,
        0,
# ... 18 like lines cut
    ),
)

WHOL = DEFI_FONCTION(
    NOM_PARA="SIGM",
    INTERPOL="LOG",
    PROL_DROITE="LINEAIRE",
    PROL_GAUCHE="LINEAIRE",
    VALE=(
        138.0,
        1000000.0,
        152.0,
        500000.0,
        165.0,
        200000.0,
        180.0,
        100000.0,
        200.0,
        50000.0,
        250.0,
        20000.0,
        295.0,
        12000.0,
        305.0,
        10000.0,
        340.0,
        5000.0,
        430.0,
        2000.0,
# ... 14 like lines cut
    ),
)

MAT0 = DEFI_MATERIAU(
    #                    ELAS=_F(E = 200000.,
    #                            NU = 0.3,
    #                            ALPHA = 0. ),
    FATIGUE=_F(WOHLER=WHOL, D0=540.97, TAU0=352.0)
)

NBPR = 14
CRIT = [None] * NBPR
FATN = [None] * NBPR
FATM = [None] * NBPR
NPAR = [None] * NBPR
CRIT[0] = FORMULE(NOM_PARA="DEPSPE", VALE="""DEPSPE""")

CRIT[1] = FORMULE(NOM_PARA="EPSPR1", VALE="""EPSPR1""")

CRIT[2] = FORMULE(NOM_PARA="SIGNM1", VALE="""SIGNM1""")

CRIT[3] = FORMULE(NOM_PARA="APHYDR", VALE="""APHYDR""")
CRIT[4] = FORMULE(NOM_PARA="DENDIS", VALE="""DENDIS""")

CRIT[5] = FORMULE(NOM_PARA="DENDIE", VALE="""DENDIE""")

CRIT[6] = FORMULE(NOM_PARA="DSIGEQ", VALE="""DSIGEQ""")

CRIT[7] = FORMULE(NOM_PARA="SIGPR1", VALE="""SIGPR1""")

CRIT[8] = FORMULE(NOM_PARA="EPSNM1", VALE="""EPSNM1""")

CRIT[9] = FORMULE(NOM_PARA="INVA2S", VALE="""INVA2S""")

CRIT[10] = FORMULE(NOM_PARA="DSITRE", VALE="""DSITRE""")

CRIT[11] = FORMULE(NOM_PARA="DEPTRE", VALE="""DEPTRE""")

CRIT[12] = FORMULE(NOM_PARA="EPSPAC", VALE="""EPSPAC""")

CRIT[13] = FORMULE(NOM_PARA="DEPSEE", VALE="""DEPSEE""")

RESU = [
    7.5e-4,
    7.625e-4,
    200,
    66.66666,
    0.45,
    0.17333333,
    200,
    100,
    1.75e-3,
    1.616666e-3,
    50,
    6.0625e-4,
    3.6742346e-3,
    0.00086666666,
]
NPAR = [
    "DEPSPE",
    "EPSPR1",
    "SIGNM1",
    "APHYDR",
    "DENDIS",
    "DENDIE",
    "DSIGEQ",
    "SIGPR1",
    "EPSNM1",
    "INVA2S",
    "DSITRE",
    "DEPTRE",
    "EPSPAC",
    "DEPSEE",
]
for i in range(NBPR):
    # for i in range(5,6) :
    #
    # TEST CRITERE FORMULE
    #########################################NOEUD
    FATN[i] = POST_FATIGUE(
        CHARGEMENT="MULTIAXIAL",
        HISTOIRE=_F(
            SIGM_XX=SIGMXX,
            SIGM_YY=ZERO,
            SIGM_ZZ=ZERO,
            SIGM_XY=ZERO,
            SIGM_XZ=ZERO,
            SIGM_YZ=ZERO,
            EPS_XX=EPSTXX,
            EPS_YY=EPSTYY,
            EPS_ZZ=EPSTZZ,
            EPS_XY=ZERO,
            EPS_XZ=ZERO,
            EPS_YZ=ZERO,
            EPSP_XX=EPSPXX,
            EPSP_YY=EPSPYY,
            EPSP_ZZ=EPSPZZ,
            EPSP_XY=ZERO,
            EPSP_XZ=ZERO,
            EPSP_YZ=ZERO,
        ),
        TYPE_CHARGE="PERIODIQUE",
        CRITERE="FORMULE_CRITERE",
        FORMULE_GRDEQ=CRIT[i],
        DOMMAGE="WOHLER",
        MATER=MAT0,
    )

    IMPR_TABLE(TABLE=FATN[i])

    TEST_TABLE(
        VALE_CALC=RESU[i],
        VALE_REFE=RESU[i],
        REFERENCE="ANALYTIQUE",
        NOM_PARA=NPAR[i],
        TABLE=FATN[i],
    )

###################################################
# POUR RETROUVER LES CRITERES DE DANG_VAN ET MATAKE
###################################################
# LE CHARGEMENT OBTENU AVEC SSLV135a
#######################################################
# ASSOCIE AVEC LA SOLUTION SOL_NL de SSLV135a
#######################################################
# POUR DANG-VAN et MATAKE
SIGMXX2 = DEFI_FONCTION(
    NOM_PARA="INST",
    VALE=(
        0.00000e00,
        0.00000e00,
        5.00000e-01,
        5.00000e01,
        1.00000e00,
        1.00000e02,
        1.50000e00,
        5.00000e01,
        2.00000e00,
        1.28358e-14,
        2.50000e00,
        -5.00000e01,
        3.00000e00,
        -1.00000e02,
        3.50000e00,
        -5.00000e01,
        4.00000e00,
        -1.40267e-26,
    ),
)

SIGMYY2 = DEFI_FONCTION(
    NOM_PARA="INST",
    VALE=(
        0.00000e00,
        0.00000e00,
        5.00000e-01,
        -1.00000e02,
        1.00000e00,
        -2.00000e02,
        1.50000e00,
        -1.00000e02,
        2.00000e00,
        -2.52742e-13,
        2.50000e00,
        1.00000e02,
        3.00000e00,
        2.00000e02,
        3.50000e00,
        1.00000e02,
        4.00000e00,
        -1.40368e-26,
    ),
)
ZERO2 = DEFI_FONCTION(
    NOM_PARA="INST",
    VALE=(
        0.00000e00,
        0,
        5.00000e-01,
        0,
        1.00000e00,
        0,
        1.50000e00,
        0,
        2.00000e00,
        0,
        2.50000e00,
        0,
        3.00000e00,
        0,
        3.50000e00,
        0,
        4.00000e00,
        0,
    ),
)

EPSTXX2 = DEFI_FONCTION(
    NOM_PARA="INST",
    VALE=(
        0.00000e00,
        0.00000e00,
        5.00000e-01,
        4.00000e-04,
        1.00000e00,
        8.00000e-04,
        1.50000e00,
        4.00000e-04,
        2.00000e00,
        4.25211e-19,
        2.50000e00,
        -4.00000e-04,
        3.00000e00,
        -8.00000e-04,
        3.50000e00,
        -4.00000e-04,
        4.00000e00,
        -1.28195e-33,
    ),
)


EPSTYY2 = DEFI_FONCTION(
    NOM_PARA="INST",
    VALE=(
        0.00000e00,
        0.00000e00,
        5.00000e-01,
        -5.75000e-04,
        1.00000e00,
        -1.15000e-03,
        1.50000e00,
        -5.75000e-04,
        2.00000e00,
        -1.30104e-18,
        2.50000e00,
        5.75000e-04,
        3.00000e00,
        1.15000e-03,
        3.50000e00,
        5.75000e-04,
        4.00000e00,
        2.40741e-33,
    ),
)

EPSTZZ2 = DEFI_FONCTION(
    NOM_PARA="INST",
    VALE=(
        0.00000e00,
        0.00000e00,
        5.00000e-01,
        7.50000e-05,
        1.00000e00,
        1.50000e-04,
        1.50000e00,
        7.50000e-05,
        2.00000e00,
        4.20128e-19,
        2.50000e00,
        -7.50000e-05,
        3.00000e00,
        -1.50000e-04,
        3.50000e00,
        -7.50000e-05,
        4.00000e00,
        -2.31112e-33,
    ),
)

## CRITERES A TESTER
CRIT2 = [None] * 4

# POUR RETROUVER 'MATAKE_MODI_AC'
CRIT2[0] = FORMULE(NOM_PARA=("DTAUMA", "NORMAX"), VALE=""" 1.5*( DTAUMA + max(0,NORMAX) ) """)

# POUR RETROUVER 'DANG_VAN_MODI_AC'
CRIT2[1] = FORMULE(NOM_PARA=("DTAUMA", "PHYDRM"), VALE=""" 1.5*(DTAUMA + max(PHYDRM,0)) """)
CRIT2[2] = "MATAKE_MODI_AC"
CRIT2[3] = "DANG_VAN_MODI_AC"
## -----------------------------------------------------------------------

FATN2 = [None] * 4

NPAR = [
    "DTAUMA",
    "VNM1X",
    "VNM1Y",
    "VNM1Z",
    "NORMAX",
    "NORMOY",
    "EPNMAX",
    "EPNMOY",
    "VALE_CRITERE",
    "NBRUP",
    "DOMMAGE",
]
CTEST = [
    "RELATIF",
    "RELATIF",
    "RELATIF",
    "ABSOLU",
    "RELATIF",
    "ABSOLU",
    "RELATIF",
    "ABSOLU",
    "RELATIF",
    "RELATIF",
    "RELATIF",
]

RESU = [
    1.50e02,
    7.0710678118655e-01,
    7.0710678118655e-01,
    0,
    5.0000000000000e01,
    0,
    1.7500000000000e-04,
    0,
    3.0000000000000e02,
    1.0946000000000e04,
    9.1356470832402e-05,
    # DANG_VAN
    1.50e02,
    7.0710678118655e-01,
    7.0710678118655e-01,
    0,
    5.0000000000000e01,
    0,
    1.7500000000000e-04,
    0,
    2.7500000000000e02,
    1.4903000000000e04,
    6.7099587679274e-05,
]
#
NPARM = ["DTAUMA", "NORMAX", "VALE_CRITERE", "NBRUP", "DOMMAGE"]
NPARD = ["DTAUMA", "PHYDRM", "VALE_CRITERE", "NBRUP", "DOMMAGE"]

for i in range(2):

    FATN2[i] = POST_FATIGUE(
        CHARGEMENT="MULTIAXIAL",
        HISTOIRE=_F(
            SIGM_XX=SIGMXX2,
            SIGM_YY=SIGMYY2,
            SIGM_ZZ=ZERO2,
            SIGM_XY=ZERO2,
            SIGM_XZ=ZERO2,
            SIGM_YZ=ZERO2,
            EPS_XX=EPSTXX2,
            EPS_YY=EPSTYY2,
            EPS_ZZ=EPSTZZ2,
            EPS_XY=ZERO2,
            EPS_XZ=ZERO2,
            EPS_YZ=ZERO2,
        ),
        TYPE_CHARGE="PERIODIQUE",
        CRITERE="FORMULE_CRITERE",
        FORMULE_GRDEQ=CRIT2[i],
        DOMMAGE="WOHLER",
        METHODE="CERCLE_EXACT",
        MATER=MAT0,
    )

    IMPR_TABLE(TABLE=FATN2[i])

    for j in range(11):
        crit = "RELATIF" if RESU[j + 11 * i] != 0.0 else "ABSOLU"
        TEST_TABLE(
            CRITERE=crit,
            VALE_REFE=RESU[j + 11 * i],
            VALE_CALC=RESU[j + 11 * i],
            REFERENCE="ANALYTIQUE",
            NOM_PARA=NPAR[j],
            TABLE=FATN2[i],
        )

FATNW2 = [None] * 2

### FORMULE_VIE = WHOL,
for i in range(2):
    FATNW2[i] = POST_FATIGUE(
        CHARGEMENT="MULTIAXIAL",
        HISTOIRE=_F(
            SIGM_XX=SIGMXX2,
            SIGM_YY=SIGMYY2,
            SIGM_ZZ=ZERO2,
            SIGM_XY=ZERO2,
            SIGM_XZ=ZERO2,
            SIGM_YZ=ZERO2,
            EPS_XX=EPSTXX2,
            EPS_YY=EPSTYY2,
            EPS_ZZ=EPSTZZ2,
            EPS_XY=ZERO2,
            EPS_XZ=ZERO2,
            EPS_YZ=ZERO2,
        ),
        TYPE_CHARGE="PERIODIQUE",
        CRITERE="FORMULE_CRITERE",
        FORMULE_GRDEQ=CRIT2[i],
        DOMMAGE="FORM_VIE",
        FORMULE_VIE=WHOL,
        METHODE="CERCLE_EXACT",
        MATER=MAT0,
    )

    IMPR_TABLE(TABLE=FATNW2[i])

    for j in range(11):
        crit = "RELATIF" if RESU[j + 11 * i] != 0.0 else "ABSOLU"
        TEST_TABLE(
            CRITERE=crit,
            VALE_REFE=RESU[j + 11 * i],
            VALE_CALC=RESU[j + 11 * i],
            REFERENCE="ANALYTIQUE",
            NOM_PARA=NPAR[j],
            TABLE=FATNW2[i],
        )

### POUR RETROUVER CRIERES EN NOMS
ACIER = [None] * 2
ACIER[0] = DEFI_MATERIAU(
    ELAS=_F(E=200000.0, NU=0.3, ALPHA=0.0),
    FATIGUE=_F(WOHLER=WHOL),
    CISA_PLAN_CRIT=_F(CRITERE="MATAKE_MODI_AC", MATAKE_A=1.0, MATAKE_B=2.0, COEF_FLEX_TORS=1.5),
)
ACIER[1] = DEFI_MATERIAU(
    ELAS=_F(E=200000.0, NU=0.3, ALPHA=0.0),
    FATIGUE=_F(WOHLER=WHOL),
    CISA_PLAN_CRIT=_F(CRITERE="DANG_VAN_MODI_AC", D_VAN_A=1.0, D_VAN_B=2.0, COEF_CISA_TRAC=1.5),
)
for i in range(2):
    FATN2[i + 2] = POST_FATIGUE(
        CHARGEMENT="MULTIAXIAL",
        HISTOIRE=_F(
            SIGM_XX=SIGMXX2,
            SIGM_YY=SIGMYY2,
            SIGM_ZZ=ZERO2,
            SIGM_XY=ZERO2,
            SIGM_XZ=ZERO2,
            SIGM_YZ=ZERO2,
            EPS_XX=EPSTXX2,
            EPS_YY=EPSTYY2,
            EPS_ZZ=EPSTZZ2,
            EPS_XY=ZERO2,
            EPS_XZ=ZERO2,
            EPS_YZ=ZERO2,
        ),
        TYPE_CHARGE="PERIODIQUE",
        CRITERE=CRIT2[i + 2],
        MATER=ACIER[i],
    )

    IMPR_TABLE(TABLE=FATN2[i + 2])

    for j in range(11):
        crit = "RELATIF" if RESU[j + 11 * i] != 0.0 else "ABSOLU"
        TEST_TABLE(
            CRITERE=crit,
            VALE_REFE=RESU[j + 11 * i],
            VALE_CALC=RESU[j + 11 * i],
            REFERENCE="ANALYTIQUE",
            NOM_PARA=NPAR[j],
            TABLE=FATN2[i],
        )

FIN()
#
