# coding=utf-8
# --------------------------------------------------------------------
# Copyright (C) 1991 - 2025 - EDF R&D - www.code-aster.org
# This file is part of code_aster.
#
# code_aster is free software: you can redistribute it and/or modify
# it under the terms of the GNU General Public License as published by
# the Free Software Foundation, either version 3 of the License, or
# (at your option) any later version.
#
# code_aster is distributed in the hope that it will be useful,
# but WITHOUT ANY WARRANTY; without even the implied warranty of
# MERCHANTABILITY or FITNESS FOR A PARTICULAR PURPOSE.  See the
# GNU General Public License for more details.
#
# You should have received a copy of the GNU General Public License
# along with code_aster.  If not, see <http://www.gnu.org/licenses/>.
# --------------------------------------------------------------------

#
# MAILLES : TRIA6 (ET L3)
#

DEBUT(CODE="OUI")

#
# LECTURE DU MAILLAGE --------------------------------------------------
#


MAIL = LIRE_MAILLAGE(FORMAT="MED")

#
# DEFINITION DES CHARGEMENTS ET DU MATERIAU ----------------------------
#

# ----- MATERIAU


MATER = DEFI_MATERIAU(THER=_F(LAMBDA=33.33, RHO_CP=1.0))

#
# AFFECTATIONS: MATERIAU, MODELE, CHARGEMENT ---------------------------
#


CHMAT = AFFE_MATERIAU(MAILLAGE=MAIL, AFFE=_F(TOUT="OUI", MATER=MATER))

MOTH = AFFE_MODELE(MAILLAGE=MAIL, AFFE=_F(TOUT="OUI", PHENOMENE="THERMIQUE", MODELISATION="AXIS"))

CHTH = AFFE_CHAR_THER(
    MODELE=MOTH,
    TEMP_IMPO=(_F(GROUP_NO="NOE_AD", TEMP=0.0), _F(GROUP_NO="NOE_BC", TEMP=500.0)),
    FLUX_REP=_F(GROUP_MA="MAI_DC", FLUN=-200.0),
)

#
# DEFINITION DE LA STRATEGIE DE CALCUL ---------------------------------
#

#
# RESOLUTION -----------------------------------------------------------
#

TEMPE = THER_LINEAIRE(
    MODELE=MOTH,
    CHAM_MATER=CHMAT,
    EXCIT=_F(CHARGE=CHTH),
    TYPE_CALCUL="STAT",
    INCREMENT=_F(LIST_INST=DEFI_LIST_REEL(VALE=0.0)),
)

#
# ANALYSE DES RESULTATS ------------------------------------------------
#

TPR = CREA_CHAMP(
    OPERATION="EXTR", TYPE_CHAM="NOEU_TEMP_R", NOM_CHAM="TEMP", RESULTAT=TEMPE, NUME_ORDRE=1
)

TEST_RESU(
    CHAM_NO=(
        _F(
            GROUP_NO="N1",
            CRITERE="ABSOLU",
            NOM_CMP="TEMP",
            CHAM_GD=TPR,
            REFERENCE="ANALYTIQUE",
            VALE_REFE=0.0,
            VALE_CALC=0.0,
        ),
        _F(
            GROUP_NO="N3",
            CRITERE="ABSOLU",
            NOM_CMP="TEMP",
            CHAM_GD=TPR,
            REFERENCE="ANALYTIQUE",
            VALE_REFE=0.0,
            VALE_CALC=0.0,
        ),
        _F(
            GROUP_NO="N5",
            CRITERE="ABSOLU",
            NOM_CMP="TEMP",
            CHAM_GD=TPR,
            REFERENCE="ANALYTIQUE",
            VALE_REFE=0.0,
            VALE_CALC=0.0,
        ),
        _F(
            GROUP_NO="N81",
            NOM_CMP="TEMP",
            PRECISION=1.0e-2,
            CHAM_GD=TPR,
            VALE_CALC=-3.990395553,
            VALE_REFE=-4.0,
            REFERENCE="ANALYTIQUE",
        ),
        _F(
            GROUP_NO="N83",
            NOM_CMP="TEMP",
            PRECISION=1.0e-2,
            CHAM_GD=TPR,
            VALE_CALC=-3.997896351,
            VALE_REFE=-4.0,
            REFERENCE="ANALYTIQUE",
        ),
        _F(
            GROUP_NO="N85",
            NOM_CMP="TEMP",
            PRECISION=1.0e-2,
            CHAM_GD=TPR,
            VALE_CALC=-4.020400237,
            VALE_REFE=-4.0,
            REFERENCE="ANALYTIQUE",
        ),
        _F(
            GROUP_NO="N161",
            NOM_CMP="TEMP",
            PRECISION=1.0e-2,
            CHAM_GD=TPR,
            VALE_CALC=4.005406508,
            VALE_REFE=4.0,
            REFERENCE="ANALYTIQUE",
        ),
        _F(
            GROUP_NO="N163",
            NOM_CMP="TEMP",
            PRECISION=1.0e-2,
            CHAM_GD=TPR,
            VALE_CALC=3.997905669,
            VALE_REFE=4.0,
            REFERENCE="ANALYTIQUE",
        ),
        _F(
            GROUP_NO="N165",
            NOM_CMP="TEMP",
            PRECISION=1.0e-2,
            CHAM_GD=TPR,
            VALE_CALC=3.975378545,
            VALE_REFE=4.0,
            REFERENCE="ANALYTIQUE",
        ),
        _F(
            GROUP_NO="N241",
            NOM_CMP="TEMP",
            PRECISION=1.0e-2,
            CHAM_GD=TPR,
            VALE_CALC=24.002413862,
            VALE_REFE=24.0,
            REFERENCE="ANALYTIQUE",
        ),
        _F(
            GROUP_NO="N243",
            NOM_CMP="TEMP",
            PRECISION=1.0e-2,
            CHAM_GD=TPR,
            VALE_CALC=23.994912986,
            VALE_REFE=24.0,
            REFERENCE="ANALYTIQUE",
        ),
        _F(
            GROUP_NO="N245",
            NOM_CMP="TEMP",
            PRECISION=1.0e-2,
            CHAM_GD=TPR,
            VALE_CALC=23.972333270,
            VALE_REFE=24.0,
            REFERENCE="ANALYTIQUE",
        ),
        _F(
            GROUP_NO="N321",
            NOM_CMP="TEMP",
            PRECISION=1.0e-2,
            CHAM_GD=TPR,
            VALE_CALC=56.000614316,
            VALE_REFE=56.0,
            REFERENCE="ANALYTIQUE",
        ),
        _F(
            GROUP_NO="N323",
            NOM_CMP="TEMP",
            PRECISION=1.0e-2,
            CHAM_GD=TPR,
            VALE_CALC=55.993113400,
            VALE_REFE=56.0,
            REFERENCE="ANALYTIQUE",
        ),
        _F(
            GROUP_NO="N325",
            NOM_CMP="TEMP",
            PRECISION=1.0e-2,
            CHAM_GD=TPR,
            VALE_CALC=55.970478814,
            VALE_REFE=56.0,
            REFERENCE="ANALYTIQUE",
        ),
        _F(
            GROUP_NO="N401",
            NOM_CMP="TEMP",
            PRECISION=1.0e-2,
            CHAM_GD=TPR,
            VALE_CALC=100.000016447,
            VALE_REFE=100.0,
            REFERENCE="ANALYTIQUE",
        ),
        _F(
            GROUP_NO="N403",
            NOM_CMP="TEMP",
            PRECISION=1.0e-2,
            CHAM_GD=TPR,
            VALE_CALC=99.992515553,
            VALE_REFE=100.0,
            REFERENCE="ANALYTIQUE",
        ),
        _F(
            GROUP_NO="N405",
            NOM_CMP="TEMP",
            PRECISION=1.0e-2,
            CHAM_GD=TPR,
            VALE_CALC=99.969848915,
            VALE_REFE=100.0,
            REFERENCE="ANALYTIQUE",
        ),
        _F(
            GROUP_NO="N481",
            NOM_CMP="TEMP",
            PRECISION=1.0e-2,
            CHAM_GD=TPR,
            VALE_CALC=156.000630570,
            VALE_REFE=156.0,
            REFERENCE="ANALYTIQUE",
        ),
        _F(
            GROUP_NO="N483",
            NOM_CMP="TEMP",
            PRECISION=1.0e-2,
            CHAM_GD=TPR,
            VALE_CALC=155.993129706,
            VALE_REFE=156.0,
            REFERENCE="ANALYTIQUE",
        ),
        _F(
            GROUP_NO="N485",
            NOM_CMP="TEMP",
            PRECISION=1.0e-2,
            CHAM_GD=TPR,
            VALE_CALC=155.970411155,
            VALE_REFE=156.0,
            REFERENCE="ANALYTIQUE",
        ),
        _F(
            GROUP_NO="N561",
            NOM_CMP="TEMP",
            PRECISION=1.0e-2,
            CHAM_GD=TPR,
            VALE_CALC=224.002413877,
            VALE_REFE=224.0,
            REFERENCE="ANALYTIQUE",
        ),
        _F(
            GROUP_NO="N563",
            NOM_CMP="TEMP",
            PRECISION=1.0e-2,
            CHAM_GD=TPR,
            VALE_CALC=223.994912942,
            VALE_REFE=224.0,
            REFERENCE="ANALYTIQUE",
        ),
        _F(
            GROUP_NO="N565",
            NOM_CMP="TEMP",
            PRECISION=1.0e-2,
            CHAM_GD=TPR,
            VALE_CALC=223.972137684,
            VALE_REFE=224.0,
            REFERENCE="ANALYTIQUE",
        ),
        _F(
            GROUP_NO="N641",
            NOM_CMP="TEMP",
            PRECISION=1.0e-2,
            CHAM_GD=TPR,
            VALE_CALC=304.005413835,
            VALE_REFE=304.0,
            REFERENCE="ANALYTIQUE",
        ),
        _F(
            GROUP_NO="N643",
            NOM_CMP="TEMP",
            PRECISION=1.0e-2,
            CHAM_GD=TPR,
            VALE_CALC=303.997912910,
            VALE_REFE=304.0,
            REFERENCE="ANALYTIQUE",
        ),
        _F(
            GROUP_NO="N645",
            NOM_CMP="TEMP",
            PRECISION=1.0e-2,
            CHAM_GD=TPR,
            VALE_CALC=303.975015860,
            VALE_REFE=304.0,
            REFERENCE="ANALYTIQUE",
        ),
        _F(
            GROUP_NO="N721",
            NOM_CMP="TEMP",
            PRECISION=1.0e-2,
            CHAM_GD=TPR,
            VALE_CALC=396.009607785,
            VALE_REFE=396.0,
            REFERENCE="ANALYTIQUE",
        ),
        _F(
            GROUP_NO="N723",
            NOM_CMP="TEMP",
            PRECISION=1.0e-2,
            CHAM_GD=TPR,
            VALE_CALC=396.002106811,
            VALE_REFE=396.0,
            REFERENCE="ANALYTIQUE",
        ),
        _F(
            GROUP_NO="N725",
            NOM_CMP="TEMP",
            PRECISION=1.0e-2,
            CHAM_GD=TPR,
            VALE_CALC=395.979056909,
            VALE_REFE=396.0,
            REFERENCE="ANALYTIQUE",
        ),
        _F(
            GROUP_NO="N801",
            NOM_CMP="TEMP",
            CHAM_GD=TPR,
            REFERENCE="ANALYTIQUE",
            VALE_REFE=500.0,
            VALE_CALC=500.0,
        ),
        _F(
            GROUP_NO="N803",
            NOM_CMP="TEMP",
            CHAM_GD=TPR,
            REFERENCE="ANALYTIQUE",
            VALE_REFE=500.0,
            VALE_CALC=500.0,
        ),
        _F(
            GROUP_NO="N805",
            NOM_CMP="TEMP",
            CHAM_GD=TPR,
            REFERENCE="ANALYTIQUE",
            VALE_REFE=500.0,
            VALE_CALC=500.0,
        ),
    )
)

FIN()
