# coding=utf-8
# --------------------------------------------------------------------
# Copyright (C) 1991 - 2025 - EDF R&D - www.code-aster.org
# This file is part of code_aster.
#
# code_aster is free software: you can redistribute it and/or modify
# it under the terms of the GNU General Public License as published by
# the Free Software Foundation, either version 3 of the License, or
# (at your option) any later version.
#
# code_aster is distributed in the hope that it will be useful,
# but WITHOUT ANY WARRANTY; without even the implied warranty of
# MERCHANTABILITY or FITNESS FOR A PARTICULAR PURPOSE.  See the
# GNU General Public License for more details.
#
# You should have received a copy of the GNU General Public License
# along with code_aster.  If not, see <http://www.gnu.org/licenses/>.
# --------------------------------------------------------------------

#

DEBUT(CODE="OUI")

#
# LECTURE DU MAILLAGE ----------------------------------------------
#

MAILL = LIRE_MAILLAGE(FORMAT="MED")

#
# DEFINITION DES CHARGEMENTS ET DU MATERIAU ------------------------
#

MATE = DEFI_MATERIAU(THER=_F(RHO_CP=1.0, LAMBDA=0.04))

#
# AFFECTATIONS: MATERIAU  MODELE  CHARGEMENT ----------------------
#

MODEL = AFFE_MODELE(MAILLAGE=MAILL, AFFE=_F(TOUT="OUI", PHENOMENE="THERMIQUE", MODELISATION="PLAN"))

CHMATE = AFFE_MATERIAU(MAILLAGE=MAILL, AFFE=_F(TOUT="OUI", MATER=MATE))

CHARGE = AFFE_CHAR_THER(
    MODELE=MODEL, TEMP_IMPO=_F(GROUP_NO="NOE_IMP", TEMP=0.0e0), SOURCE=_F(TOUT="OUI", SOUR=1.0e0)
)

#
# RESOLUTION ------------------------------------------------------
#


TEMP = THER_LINEAIRE(
    MODELE=MODEL,
    CHAM_MATER=CHMATE,
    EXCIT=_F(CHARGE=CHARGE),
    TYPE_CALCUL="STAT",
    INCREMENT=_F(LIST_INST=DEFI_LIST_REEL(VALE=0.0)),
)

#
# ANALYSE DES RESULTATS -------------------------------------------
#
TPR = CREA_CHAMP(
    OPERATION="EXTR", TYPE_CHAM="NOEU_TEMP_R", NOM_CHAM="TEMP", RESULTAT=TEMP, NUME_ORDRE=1
)

#

TEST_RESU(
    CHAM_NO=(
        _F(
            GROUP_NO="N1",
            NOM_CMP="TEMP",
            PRECISION=1.0e-2,
            CHAM_GD=TPR,
            VALE_CALC=156.071810070,
            VALE_REFE=156.25,
            REFERENCE="NON_DEFINI",
        ),
        _F(
            GROUP_NO="N3",
            NOM_CMP="TEMP",
            PRECISION=1.0e-2,
            CHAM_GD=TPR,
            VALE_CALC=153.630899849,
            VALE_REFE=153.81,
            REFERENCE="NON_DEFINI",
        ),
        _F(
            GROUP_NO="N45",
            NOM_CMP="TEMP",
            PRECISION=1.0e-2,
            CHAM_GD=TPR,
            VALE_CALC=153.630899849,
            VALE_REFE=153.81,
            REFERENCE="NON_DEFINI",
        ),
        _F(
            GROUP_NO="N5",
            NOM_CMP="TEMP",
            PRECISION=1.0e-2,
            CHAM_GD=TPR,
            VALE_CALC=146.309221236,
            VALE_REFE=146.47999999999999,
            REFERENCE="NON_DEFINI",
        ),
        _F(
            GROUP_NO="N79",
            NOM_CMP="TEMP",
            PRECISION=1.0e-2,
            CHAM_GD=TPR,
            VALE_CALC=146.309221237,
            VALE_REFE=146.47999999999999,
            REFERENCE="NON_DEFINI",
        ),
        _F(
            GROUP_NO="N7",
            NOM_CMP="TEMP",
            PRECISION=1.0e-2,
            CHAM_GD=TPR,
            VALE_CALC=134.104652629,
            VALE_REFE=134.28,
            REFERENCE="NON_DEFINI",
        ),
        _F(
            GROUP_NO="N116",
            NOM_CMP="TEMP",
            PRECISION=1.0e-2,
            CHAM_GD=TPR,
            VALE_CALC=134.104652630,
            VALE_REFE=134.28,
            REFERENCE="NON_DEFINI",
        ),
        _F(
            GROUP_NO="N9",
            NOM_CMP="TEMP",
            PRECISION=1.0e-2,
            CHAM_GD=TPR,
            VALE_CALC=116.976223042,
            VALE_REFE=117.19,
            REFERENCE="NON_DEFINI",
        ),
        _F(
            GROUP_NO="N146",
            NOM_CMP="TEMP",
            PRECISION=1.0e-2,
            CHAM_GD=TPR,
            VALE_CALC=116.976223042,
            VALE_REFE=117.19,
            REFERENCE="NON_DEFINI",
        ),
        _F(
            GROUP_NO="N108",
            NOM_CMP="TEMP",
            PRECISION=1.0e-2,
            CHAM_GD=TPR,
            VALE_CALC=116.822976041,
            VALE_REFE=117.19,
            REFERENCE="NON_DEFINI",
        ),
        _F(
            GROUP_NO="N11",
            NOM_CMP="TEMP",
            PRECISION=1.0e-2,
            CHAM_GD=TPR,
            VALE_CALC=95.040127010,
            VALE_REFE=95.209999999999994,
            REFERENCE="NON_DEFINI",
        ),
        _F(
            GROUP_NO="N171",
            NOM_CMP="TEMP",
            PRECISION=1.0e-2,
            CHAM_GD=TPR,
            VALE_CALC=95.040127011,
            VALE_REFE=95.209999999999994,
            REFERENCE="NON_DEFINI",
        ),
        _F(
            GROUP_NO="N133",
            NOM_CMP="TEMP",
            PRECISION=1.0e-2,
            CHAM_GD=TPR,
            VALE_CALC=95.003995324,
            VALE_REFE=95.209999999999994,
            REFERENCE="NON_DEFINI",
        ),
        _F(
            GROUP_NO="N13",
            NOM_CMP="TEMP",
            PRECISION=1.0e-2,
            CHAM_GD=TPR,
            VALE_CALC=68.229319062,
            VALE_REFE=68.359999999999999,
            REFERENCE="NON_DEFINI",
        ),
        _F(
            GROUP_NO="N191",
            NOM_CMP="TEMP",
            PRECISION=1.0e-2,
            CHAM_GD=TPR,
            VALE_CALC=68.229319062,
            VALE_REFE=68.359999999999999,
            REFERENCE="NON_DEFINI",
        ),
        _F(
            GROUP_NO="N151",
            NOM_CMP="TEMP",
            PRECISION=1.0e-2,
            CHAM_GD=TPR,
            VALE_CALC=68.213894026,
            VALE_REFE=68.359999999999999,
            REFERENCE="NON_DEFINI",
        ),
        _F(
            GROUP_NO="N15",
            NOM_CMP="TEMP",
            PRECISION=1.0e-2,
            CHAM_GD=TPR,
            VALE_CALC=36.548894536,
            VALE_REFE=36.619999999999997,
            REFERENCE="NON_DEFINI",
        ),
        _F(
            GROUP_NO="N207",
            NOM_CMP="TEMP",
            PRECISION=1.0e-2,
            CHAM_GD=TPR,
            VALE_CALC=36.548894537,
            VALE_REFE=36.619999999999997,
            REFERENCE="NON_DEFINI",
        ),
        _F(
            GROUP_NO="N168",
            NOM_CMP="TEMP",
            PRECISION=1.0e-2,
            CHAM_GD=TPR,
            VALE_CALC=36.542869062,
            VALE_REFE=36.619999999999997,
            REFERENCE="NON_DEFINI",
        ),
        _F(GROUP_NO="N17", CRITERE="ABSOLU", NOM_CMP="TEMP", CHAM_GD=TPR, VALE_CALC=0.0),
        _F(GROUP_NO="N217", CRITERE="ABSOLU", NOM_CMP="TEMP", CHAM_GD=TPR, VALE_CALC=0.0),
        _F(GROUP_NO="N184", CRITERE="ABSOLU", NOM_CMP="TEMP", CHAM_GD=TPR, VALE_CALC=0.0),
    )
)

FIN()
#
