# coding=utf-8
# --------------------------------------------------------------------
# Copyright (C) 1991 - 2025 - EDF R&D - www.code-aster.org
# This file is part of code_aster.
#
# code_aster is free software: you can redistribute it and/or modify
# it under the terms of the GNU General Public License as published by
# the Free Software Foundation, either version 3 of the License, or
# (at your option) any later version.
#
# code_aster is distributed in the hope that it will be useful,
# but WITHOUT ANY WARRANTY; without even the implied warranty of
# MERCHANTABILITY or FITNESS FOR A PARTICULAR PURPOSE.  See the
# GNU General Public License for more details.
#
# You should have received a copy of the GNU General Public License
# along with code_aster.  If not, see <http://www.gnu.org/licenses/>.
# --------------------------------------------------------------------

#       STATIONNAIRE LINEAIRE
#
# MAILLES : QUAD9 AXIS
#

DEBUT(CODE="OUI", ERREUR=_F(ALARME="EXCEPTION"))

#
# LECTURE DU MAILLAGE --------------------------------------------------
#


MAIL = LIRE_MAILLAGE(FORMAT="MED")

#
# DEFINITION DES CHARGEMENTS ET DU MATERIAU ----------------------------
#

# ----- MATERIAU


MATE = DEFI_MATERIAU(THER=_F(LAMBDA=1.0, RHO_CP=2.0))

#
# AFFECTATIONS: MATERIAU, MODELE, CHARGEMENT ---------------------------
#


CHMAT = AFFE_MATERIAU(MAILLAGE=MAIL, AFFE=_F(TOUT="OUI", MATER=MATE))

MOTH = AFFE_MODELE(MAILLAGE=MAIL, AFFE=_F(TOUT="OUI", MODELISATION="AXIS", PHENOMENE="THERMIQUE"))

CHTH = AFFE_CHAR_THER(
    MODELE=MOTH, SOURCE=_F(TOUT="OUI", SOUR=100.0), TEMP_IMPO=_F(GROUP_NO="NOE_IMP", TEMP=20.0)
)

#
# DEFINITION DE LA STRATEGIE DE CALCUL ---------------------------------
#

#
# RESOLUTION -----------------------------------------------------------
#


TEMPE = THER_LINEAIRE(
    MODELE=MOTH,
    CHAM_MATER=CHMAT,
    EXCIT=_F(CHARGE=CHTH),
    TYPE_CALCUL="STAT",
    INCREMENT=_F(LIST_INST=DEFI_LIST_REEL(VALE=0.0)),
)

#
# ANALYSE DES RESULTATS ------------------------------------------------
#

TEMPE = CALC_CHAMP(reuse=TEMPE, RESULTAT=TEMPE, NUME_ORDRE=1, THERMIQUE=("FLUX_ELNO"))

TEST_RESU(
    RESU=(
        _F(
            NUME_ORDRE=1,
            RESULTAT=TEMPE,
            NOM_CHAM="TEMP",
            GROUP_NO="N1",
            NOM_CMP="TEMP",
            VALE_CALC=20.000000000,
            VALE_REFE=20.0,
            REFERENCE="NON_DEFINI",
            PRECISION=1.0e-2,
        ),
        _F(
            NUME_ORDRE=1,
            RESULTAT=TEMPE,
            NOM_CHAM="TEMP",
            GROUP_NO="N2",
            NOM_CMP="TEMP",
            VALE_CALC=20.000000000,
            VALE_REFE=20.0,
            REFERENCE="NON_DEFINI",
            PRECISION=1.0e-2,
        ),
        _F(
            NUME_ORDRE=1,
            RESULTAT=TEMPE,
            NOM_CHAM="TEMP",
            GROUP_NO="N3",
            NOM_CMP="TEMP",
            VALE_CALC=20.000000000,
            VALE_REFE=20.0,
            REFERENCE="NON_DEFINI",
            PRECISION=1.0e-2,
        ),
        _F(
            NUME_ORDRE=1,
            RESULTAT=TEMPE,
            NOM_CHAM="TEMP",
            GROUP_NO="N25",
            NOM_CMP="TEMP",
            VALE_CALC=28.727580183,
            VALE_REFE=28.73,
            REFERENCE="NON_DEFINI",
            PRECISION=1.0e-2,
        ),
        _F(
            NUME_ORDRE=1,
            RESULTAT=TEMPE,
            NOM_CHAM="TEMP",
            GROUP_NO="N26",
            NOM_CMP="TEMP",
            VALE_CALC=28.727580183,
            VALE_REFE=28.73,
            REFERENCE="NON_DEFINI",
            PRECISION=1.0e-2,
        ),
        _F(
            NUME_ORDRE=1,
            RESULTAT=TEMPE,
            NOM_CHAM="TEMP",
            GROUP_NO="N27",
            NOM_CMP="TEMP",
            VALE_CALC=28.727580183,
            VALE_REFE=28.73,
            REFERENCE="NON_DEFINI",
            PRECISION=1.0e-2,
        ),
        _F(
            NUME_ORDRE=1,
            RESULTAT=TEMPE,
            NOM_CHAM="TEMP",
            GROUP_NO="N61",
            NOM_CMP="TEMP",
            VALE_CALC=32.622187316,
            VALE_REFE=32.619999999999997,
            REFERENCE="NON_DEFINI",
            PRECISION=1.0e-2,
        ),
        _F(
            NUME_ORDRE=1,
            RESULTAT=TEMPE,
            NOM_CHAM="TEMP",
            GROUP_NO="N62",
            NOM_CMP="TEMP",
            VALE_CALC=32.622187316,
            VALE_REFE=32.619999999999997,
            REFERENCE="NON_DEFINI",
            PRECISION=1.0e-2,
        ),
        _F(
            NUME_ORDRE=1,
            RESULTAT=TEMPE,
            NOM_CHAM="TEMP",
            GROUP_NO="N63",
            NOM_CMP="TEMP",
            VALE_CALC=32.622187316,
            VALE_REFE=32.619999999999997,
            REFERENCE="NON_DEFINI",
            PRECISION=1.0e-2,
        ),
        _F(
            NUME_ORDRE=1,
            RESULTAT=TEMPE,
            NOM_CHAM="FLUX_ELNO",
            GROUP_NO="N1",
            NOM_CMP="FLUX",
            VALE_CALC=-58.159209014,
            VALE_REFE=-58.200000000000003,
            REFERENCE="NON_DEFINI",
            PRECISION=1.0e-2,
            GROUP_MA="M20",
        ),
        _F(
            NUME_ORDRE=1,
            RESULTAT=TEMPE,
            NOM_CHAM="FLUX_ELNO",
            GROUP_NO="N2",
            NOM_CMP="FLUX",
            VALE_CALC=-58.159209014,
            VALE_REFE=-58.200000000000003,
            REFERENCE="NON_DEFINI",
            PRECISION=1.0e-2,
            GROUP_MA="M20",
        ),
        _F(
            NUME_ORDRE=1,
            RESULTAT=TEMPE,
            NOM_CHAM="FLUX_ELNO",
            GROUP_NO="N3",
            NOM_CMP="FLUX",
            VALE_CALC=-58.159209014,
            VALE_REFE=-58.200000000000003,
            REFERENCE="NON_DEFINI",
            PRECISION=1.0e-2,
            GROUP_MA="M20",
        ),
        _F(
            NUME_ORDRE=1,
            RESULTAT=TEMPE,
            NOM_CHAM="FLUX_ELNO",
            GROUP_NO="N25",
            NOM_CMP="FLUX",
            VALE_CALC=-30.141224559,
            VALE_REFE=-30.170000000000002,
            REFERENCE="NON_DEFINI",
            PRECISION=1.0e-2,
            GROUP_MA="M17",
        ),
        _F(
            NUME_ORDRE=1,
            RESULTAT=TEMPE,
            NOM_CHAM="FLUX_ELNO",
            GROUP_NO="N26",
            NOM_CMP="FLUX",
            VALE_CALC=-30.141224559,
            VALE_REFE=-30.170000000000002,
            REFERENCE="NON_DEFINI",
            PRECISION=1.0e-2,
            GROUP_MA="M17",
        ),
        _F(
            NUME_ORDRE=1,
            RESULTAT=TEMPE,
            NOM_CHAM="FLUX_ELNO",
            GROUP_NO="N27",
            NOM_CMP="FLUX",
            VALE_CALC=-30.141224559,
            VALE_REFE=-30.170000000000002,
            REFERENCE="NON_DEFINI",
            PRECISION=1.0e-2,
            GROUP_MA="M17",
        ),
        _F(
            NUME_ORDRE=1,
            RESULTAT=TEMPE,
            NOM_CHAM="FLUX_ELNO",
            GROUP_NO="N25",
            NOM_CMP="FLUX",
            VALE_CALC=-30.143401279,
            VALE_REFE=-30.170000000000002,
            REFERENCE="NON_DEFINI",
            PRECISION=1.0e-2,
            GROUP_MA="M16",
        ),
        _F(
            NUME_ORDRE=1,
            RESULTAT=TEMPE,
            NOM_CHAM="FLUX_ELNO",
            GROUP_NO="N26",
            NOM_CMP="FLUX",
            VALE_CALC=-30.143401279,
            VALE_REFE=-30.170000000000002,
            REFERENCE="NON_DEFINI",
            PRECISION=1.0e-2,
            GROUP_MA="M16",
        ),
        _F(
            NUME_ORDRE=1,
            RESULTAT=TEMPE,
            NOM_CHAM="FLUX_ELNO",
            GROUP_NO="N27",
            NOM_CMP="FLUX",
            VALE_CALC=-30.143401279,
            VALE_REFE=-30.170000000000002,
            REFERENCE="NON_DEFINI",
            PRECISION=1.0e-2,
            GROUP_MA="M16",
        ),
        _F(
            NUME_ORDRE=1,
            RESULTAT=TEMPE,
            NOM_CHAM="FLUX_ELNO",
            GROUP_NO="N61",
            NOM_CMP="FLUX",
            VALE_CALC=2.879063381,
            VALE_REFE=2.8700000000000001,
            REFERENCE="NON_DEFINI",
            PRECISION=1.0e-2,
            GROUP_MA="M11",
        ),
        _F(
            NUME_ORDRE=1,
            RESULTAT=TEMPE,
            NOM_CHAM="FLUX_ELNO",
            GROUP_NO="N62",
            NOM_CMP="FLUX",
            VALE_CALC=2.879063381,
            VALE_REFE=2.8700000000000001,
            REFERENCE="NON_DEFINI",
            PRECISION=1.0e-2,
            GROUP_MA="M11",
        ),
        _F(
            NUME_ORDRE=1,
            RESULTAT=TEMPE,
            NOM_CHAM="FLUX_ELNO",
            GROUP_NO="N63",
            NOM_CMP="FLUX",
            VALE_CALC=2.879063381,
            VALE_REFE=2.8700000000000001,
            REFERENCE="NON_DEFINI",
            PRECISION=1.0e-2,
            GROUP_MA="M11",
        ),
        _F(
            NUME_ORDRE=1,
            RESULTAT=TEMPE,
            NOM_CHAM="FLUX_ELNO",
            GROUP_NO="N61",
            NOM_CMP="FLUX",
            VALE_CALC=2.878172169,
            VALE_REFE=2.8700000000000001,
            REFERENCE="NON_DEFINI",
            PRECISION=1.0e-2,
            GROUP_MA="M10",
        ),
        _F(
            NUME_ORDRE=1,
            RESULTAT=TEMPE,
            NOM_CHAM="FLUX_ELNO",
            GROUP_NO="N62",
            NOM_CMP="FLUX",
            VALE_CALC=2.878172169,
            VALE_REFE=2.8700000000000001,
            REFERENCE="NON_DEFINI",
            PRECISION=1.0e-2,
            GROUP_MA="M10",
        ),
        _F(
            NUME_ORDRE=1,
            RESULTAT=TEMPE,
            NOM_CHAM="FLUX_ELNO",
            GROUP_NO="N63",
            NOM_CMP="FLUX",
            VALE_CALC=2.878172169,
            VALE_REFE=2.8700000000000001,
            REFERENCE="NON_DEFINI",
            PRECISION=1.0e-2,
            GROUP_MA="M10",
        ),
    )
)

#
# FIN ------------------------------------------------------------------
#

FIN()
#
#
