# coding=utf-8
# --------------------------------------------------------------------
# Copyright (C) 1991 - 2025 - EDF R&D - www.code-aster.org
# This file is part of code_aster.
#
# code_aster is free software: you can redistribute it and/or modify
# it under the terms of the GNU General Public License as published by
# the Free Software Foundation, either version 3 of the License, or
# (at your option) any later version.
#
# code_aster is distributed in the hope that it will be useful,
# but WITHOUT ANY WARRANTY; without even the implied warranty of
# MERCHANTABILITY or FITNESS FOR A PARTICULAR PURPOSE.  See the
# GNU General Public License for more details.
#
# You should have received a copy of the GNU General Public License
# along with code_aster.  If not, see <http://www.gnu.org/licenses/>.
# --------------------------------------------------------------------

#
# MAILLES : HEXA8
#

DEBUT(CODE="OUI")

#
# LECTURE DU MAILLAGE ----------------------------------------------
#

MAIL = LIRE_MAILLAGE(FORMAT="MED")

#
# DEFINITION DES CHARGEMENTS ET DU MATERIAU ------------------------
#


MATE = DEFI_MATERIAU(THER=_F(RHO_CP=1.0, LAMBDA=1.0))

#
# AFFECTATIONS: MATERIAU  MODELE  CHARGEMENT ----------------------
#


ACIER = DEFI_MATERIAU(THER=_F(LAMBDA=1.0, RHO_CP=1.0))

CHMAT = AFFE_MATERIAU(MAILLAGE=MAIL, AFFE=_F(TOUT="OUI", MATER=MATE))

MOTH = AFFE_MODELE(MAILLAGE=MAIL, AFFE=_F(TOUT="OUI", MODELISATION="3D", PHENOMENE="THERMIQUE"))

CHTH = AFFE_CHAR_THER(
    MODELE=MOTH, TEMP_IMPO=(_F(GROUP_NO="GRNO1", TEMP=10.0), _F(GROUP_NO="GRNO2", TEMP=0.0))
)

#
# RESOLUTION -----------------------------------------------------------
#


TEMPE = THER_LINEAIRE(
    MODELE=MOTH,
    CHAM_MATER=CHMAT,
    EXCIT=_F(CHARGE=CHTH),
    SOLVEUR=_F(METHODE="LDLT"),
    TYPE_CALCUL="STAT",
    INCREMENT=_F(LIST_INST=DEFI_LIST_REEL(VALE=0.0)),
)

#
# ANALYSE DES RESULTATS ------------------------------------------------
#
T2 = CREA_CHAMP(
    OPERATION="EXTR", TYPE_CHAM="NOEU_TEMP_R", NOM_CHAM="TEMP", RESULTAT=TEMPE, NUME_ORDRE=1
)

TEST_RESU(
    CHAM_NO=(
        _F(
            GROUP_NO="N1",
            NOM_CMP="TEMP",
            PRECISION=1.0e-2,
            CHAM_GD=T2,
            VALE_CALC=10.0,
            VALE_REFE=10.0,
            REFERENCE="ANALYTIQUE",
        ),
        _F(
            GROUP_NO="N2",
            NOM_CMP="TEMP",
            PRECISION=1.0e-2,
            CHAM_GD=T2,
            VALE_CALC=10.0,
            VALE_REFE=10.0,
            REFERENCE="ANALYTIQUE",
        ),
        _F(
            GROUP_NO="N3",
            NOM_CMP="TEMP",
            PRECISION=1.0e-2,
            CHAM_GD=T2,
            VALE_CALC=10.0,
            VALE_REFE=10.0,
            REFERENCE="ANALYTIQUE",
        ),
        _F(
            GROUP_NO="N4",
            NOM_CMP="TEMP",
            PRECISION=1.0e-2,
            CHAM_GD=T2,
            VALE_CALC=10.0,
            VALE_REFE=10.0,
            REFERENCE="ANALYTIQUE",
        ),
        _F(
            GROUP_NO="N5",
            NOM_CMP="TEMP",
            PRECISION=1.0e-2,
            CHAM_GD=T2,
            VALE_CALC=10.0,
            VALE_REFE=10.0,
            REFERENCE="ANALYTIQUE",
        ),
        _F(
            GROUP_NO="N6",
            NOM_CMP="TEMP",
            PRECISION=1.0e-2,
            CHAM_GD=T2,
            VALE_CALC=10.0,
            VALE_REFE=10.0,
            REFERENCE="ANALYTIQUE",
        ),
        _F(
            GROUP_NO="N7",
            NOM_CMP="TEMP",
            PRECISION=1.0e-2,
            CHAM_GD=T2,
            VALE_CALC=10.0,
            VALE_REFE=10.0,
            REFERENCE="ANALYTIQUE",
        ),
        _F(
            GROUP_NO="N8",
            NOM_CMP="TEMP",
            PRECISION=1.0e-2,
            CHAM_GD=T2,
            VALE_CALC=10.0,
            VALE_REFE=10.0,
            REFERENCE="ANALYTIQUE",
        ),
        _F(
            GROUP_NO="N9",
            NOM_CMP="TEMP",
            PRECISION=1.0e-2,
            CHAM_GD=T2,
            VALE_CALC=10.0,
            VALE_REFE=10.0,
            REFERENCE="ANALYTIQUE",
        ),
        _F(
            GROUP_NO="N10",
            NOM_CMP="TEMP",
            PRECISION=1.0e-2,
            CHAM_GD=T2,
            VALE_CALC=10.0,
            VALE_REFE=10.0,
            REFERENCE="ANALYTIQUE",
        ),
        _F(
            GROUP_NO="N11",
            NOM_CMP="TEMP",
            PRECISION=1.0e-2,
            CHAM_GD=T2,
            VALE_CALC=9.293744429,
            VALE_REFE=9.3160000000000007,
            REFERENCE="ANALYTIQUE",
        ),
        _F(
            GROUP_NO="N12",
            NOM_CMP="TEMP",
            PRECISION=1.0e-2,
            CHAM_GD=T2,
            VALE_CALC=9.293744429,
            VALE_REFE=9.3160000000000007,
            REFERENCE="ANALYTIQUE",
        ),
        _F(
            GROUP_NO="N13",
            NOM_CMP="TEMP",
            PRECISION=1.0e-2,
            CHAM_GD=T2,
            VALE_CALC=9.015377758,
            VALE_REFE=9.0009999999999994,
            REFERENCE="ANALYTIQUE",
        ),
        _F(
            GROUP_NO="N14",
            NOM_CMP="TEMP",
            PRECISION=1.0e-2,
            CHAM_GD=T2,
            VALE_CALC=9.015377758,
            VALE_REFE=9.0009999999999994,
            REFERENCE="ANALYTIQUE",
        ),
        _F(
            GROUP_NO="N15",
            NOM_CMP="TEMP",
            PRECISION=1.0e-2,
            CHAM_GD=T2,
            VALE_CALC=8.504777705,
            VALE_REFE=8.5139999999999993,
            REFERENCE="ANALYTIQUE",
        ),
        _F(
            GROUP_NO="N16",
            NOM_CMP="TEMP",
            PRECISION=1.0e-2,
            CHAM_GD=T2,
            VALE_CALC=8.504777705,
            VALE_REFE=8.5139999999999993,
            REFERENCE="ANALYTIQUE",
        ),
        _F(
            GROUP_NO="N17",
            NOM_CMP="TEMP",
            PRECISION=1.0e-2,
            CHAM_GD=T2,
            VALE_CALC=8.025493870,
            VALE_REFE=8.0180000000000007,
            REFERENCE="ANALYTIQUE",
        ),
        _F(
            GROUP_NO="N18",
            NOM_CMP="TEMP",
            PRECISION=1.0e-2,
            CHAM_GD=T2,
            VALE_CALC=8.025493870,
            VALE_REFE=8.0180000000000007,
            REFERENCE="ANALYTIQUE",
        ),
        _F(
            GROUP_NO="N19",
            NOM_CMP="TEMP",
            PRECISION=1.0e-2,
            CHAM_GD=T2,
            VALE_CALC=7.861423482,
            VALE_REFE=7.8689999999999998,
            REFERENCE="ANALYTIQUE",
        ),
        _F(
            GROUP_NO="N20",
            NOM_CMP="TEMP",
            PRECISION=1.0e-2,
            CHAM_GD=T2,
            VALE_CALC=7.861423482,
            VALE_REFE=7.8689999999999998,
            REFERENCE="ANALYTIQUE",
        ),
        _F(
            GROUP_NO="N21",
            NOM_CMP="TEMP",
            PRECISION=1.0e-2,
            CHAM_GD=T2,
            VALE_CALC=8.996466645,
            VALE_REFE=9.0090000000000003,
            REFERENCE="ANALYTIQUE",
        ),
        _F(
            GROUP_NO="N22",
            NOM_CMP="TEMP",
            PRECISION=1.0e-2,
            CHAM_GD=T2,
            VALE_CALC=8.996466645,
            VALE_REFE=9.0090000000000003,
            REFERENCE="ANALYTIQUE",
        ),
        _F(
            GROUP_NO="N23",
            NOM_CMP="TEMP",
            PRECISION=1.0e-2,
            CHAM_GD=T2,
            VALE_CALC=8.661366634,
            VALE_REFE=8.6400000000000006,
            REFERENCE="ANALYTIQUE",
        ),
        _F(
            GROUP_NO="N24",
            NOM_CMP="TEMP",
            PRECISION=1.0e-2,
            CHAM_GD=T2,
            VALE_CALC=8.661366634,
            VALE_REFE=8.6400000000000006,
            REFERENCE="ANALYTIQUE",
        ),
        _F(
            GROUP_NO="N25",
            NOM_CMP="TEMP",
            PRECISION=1.0e-2,
            CHAM_GD=T2,
            VALE_CALC=6.666666649,
            VALE_REFE=6.6669999999999998,
            REFERENCE="ANALYTIQUE",
        ),
        _F(
            GROUP_NO="N26",
            NOM_CMP="TEMP",
            PRECISION=1.0e-2,
            CHAM_GD=T2,
            VALE_CALC=6.666666649,
            VALE_REFE=6.6669999999999998,
            REFERENCE="ANALYTIQUE",
        ),
        _F(
            GROUP_NO="N27",
            NOM_CMP="TEMP",
            PRECISION=1.0e-2,
            CHAM_GD=T2,
            VALE_CALC=5.669316638,
            VALE_REFE=5.6799999999999997,
            REFERENCE="ANALYTIQUE",
        ),
        _F(
            GROUP_NO="N28",
            NOM_CMP="TEMP",
            PRECISION=1.0e-2,
            CHAM_GD=T2,
            VALE_CALC=5.669316638,
            VALE_REFE=5.6799999999999997,
            REFERENCE="ANALYTIQUE",
        ),
        _F(
            GROUP_NO="N29",
            NOM_CMP="TEMP",
            PRECISION=1.0e-2,
            CHAM_GD=T2,
            VALE_CALC=5.501766678,
            VALE_REFE=5.4950000000000001,
            REFERENCE="ANALYTIQUE",
        ),
        _F(
            GROUP_NO="N30",
            NOM_CMP="TEMP",
            PRECISION=1.0e-2,
            CHAM_GD=T2,
            VALE_CALC=5.501766678,
            VALE_REFE=5.4950000000000001,
            REFERENCE="ANALYTIQUE",
        ),
        _F(
            GROUP_NO="N31",
            NOM_CMP="TEMP",
            PRECISION=1.0e-2,
            CHAM_GD=T2,
            VALE_CALC=2.990444278,
            VALE_REFE=2.972,
            REFERENCE="ANALYTIQUE",
        ),
        _F(
            GROUP_NO="N32",
            NOM_CMP="TEMP",
            PRECISION=1.0e-2,
            CHAM_GD=T2,
            VALE_CALC=2.990444278,
            VALE_REFE=2.972,
            REFERENCE="ANALYTIQUE",
        ),
        _F(
            GROUP_NO="N33",
            NOM_CMP="TEMP",
            PRECISION=0.029999999999999999,
            CHAM_GD=T2,
            VALE_CALC=2.959128039,
            VALE_REFE=2.8809999999999998,
            REFERENCE="ANALYTIQUE",
        ),
        _F(
            GROUP_NO="N34",
            NOM_CMP="TEMP",
            PRECISION=0.029999999999999999,
            CHAM_GD=T2,
            VALE_CALC=2.959128039,
            VALE_REFE=2.8809999999999998,
            REFERENCE="ANALYTIQUE",
        ),
        _F(
            GROUP_NO="N35",
            NOM_CMP="TEMP",
            PRECISION=0.010999999999999999,
            CHAM_GD=T2,
            VALE_CALC=2.844831813,
            VALE_REFE=2.8159999999999998,
            REFERENCE="ANALYTIQUE",
        ),
        _F(
            GROUP_NO="N36",
            NOM_CMP="TEMP",
            PRECISION=0.010999999999999999,
            CHAM_GD=T2,
            VALE_CALC=2.844831813,
            VALE_REFE=2.8159999999999998,
            REFERENCE="ANALYTIQUE",
        ),
        _F(GROUP_NO="N37", CRITERE="ABSOLU", NOM_CMP="TEMP", CHAM_GD=T2, VALE_CALC=0.0),
        _F(GROUP_NO="N38", CRITERE="ABSOLU", NOM_CMP="TEMP", CHAM_GD=T2, VALE_CALC=0.0),
        _F(GROUP_NO="N39", CRITERE="ABSOLU", NOM_CMP="TEMP", CHAM_GD=T2, VALE_CALC=0.0),
        _F(GROUP_NO="N40", CRITERE="ABSOLU", NOM_CMP="TEMP", CHAM_GD=T2, VALE_CALC=0.0),
        _F(GROUP_NO="N41", CRITERE="ABSOLU", NOM_CMP="TEMP", CHAM_GD=T2, VALE_CALC=0.0),
        _F(GROUP_NO="N42", CRITERE="ABSOLU", NOM_CMP="TEMP", CHAM_GD=T2, VALE_CALC=0.0),
    )
)

FIN()
#
#
