# coding=utf-8
# --------------------------------------------------------------------
# Copyright (C) 1991 - 2025 - EDF R&D - www.code-aster.org
# This file is part of code_aster.
#
# code_aster is free software: you can redistribute it and/or modify
# it under the terms of the GNU General Public License as published by
# the Free Software Foundation, either version 3 of the License, or
# (at your option) any later version.
#
# code_aster is distributed in the hope that it will be useful,
# but WITHOUT ANY WARRANTY; without even the implied warranty of
# MERCHANTABILITY or FITNESS FOR A PARTICULAR PURPOSE.  See the
# GNU General Public License for more details.
#
# You should have received a copy of the GNU General Public License
# along with code_aster.  If not, see <http://www.gnu.org/licenses/>.
# --------------------------------------------------------------------

# CAS TEST SSLV109E
# CAS-TEST THERMIQUE FOURIER HARMONIQUE 2
#
# MODELISATION : ELEMENTS THERMIQUE AXIS_FOURIER (200 TRIA3 153 NOEUDS)
# MAILLAGE     : ALIBABA ==> ASTER
#
# ----------------------------------------------------------------------
# GROUPES DE MAILLES: FLUX_IMPO : GRMA6
#                     ECHANGE   : GRMA7
# ----------------------------------------------------------------------

DEBUT(CODE="OUI", ERREUR=_F(ALARME="EXCEPTION"), DEBUG=_F(SDVERI="OUI"))

M = LIRE_MAILLAGE(FORMAT="MED")

MO = AFFE_MODELE(
    MAILLAGE=M, AFFE=_F(TOUT="OUI", PHENOMENE="THERMIQUE", MODELISATION="AXIS_FOURIER")
)

MA = DEFI_MATERIAU(THER=_F(LAMBDA=1.0, RHO_CP=0.0))

CM = AFFE_MATERIAU(MAILLAGE=M, AFFE=_F(TOUT="OUI", MATER=MA))

T0 = DEFI_CONSTANTE(VALE=0.0)
FL2 = DEFI_CONSTANTE(VALE=2.0)
CH2 = DEFI_CONSTANTE(VALE=2.0)
TE2 = DEFI_CONSTANTE(VALE=2.0)
CH = AFFE_CHAR_THER_F(
    MODELE=MO,
    TEMP_IMPO=_F(GROUP_NO="N1", TEMP=T0),
    FLUX_REP=_F(GROUP_MA="GRMA6", FLUN=FL2),
    ECHANGE=_F(GROUP_MA="GRMA7", COEF_H=CH2, TEMP_EXT=TE2),
)

KE = CALC_MATR_ELEM(OPTION="RIGI_THER", MODELE=MO, CHAM_MATER=CM, MODE_FOURIER=2, CHARGE=CH)

VE = CALC_VECT_ELEM(OPTION="CHAR_THER", CHARGE=CH)

NU = NUME_DDL(MATR_RIGI=KE)

KAS = ASSE_MATRICE(MATR_ELEM=KE, NUME_DDL=NU)

VAS = ASSE_VECTEUR(VECT_ELEM=VE, NUME_DDL=NU)

KAS = FACTORISER(reuse=KAS, MATR_ASSE=KAS)

TEMP = RESOUDRE(MATR=KAS, CHAM_NO=VAS)

FLUXNO = CALC_CHAM_ELEM(MODELE=MO, CHAM_MATER=CM, OPTION="FLUX_ELNO", TEMP=TEMP, MODE_FOURIER=2)

FLUXGA = CALC_CHAM_ELEM(MODELE=MO, CHAM_MATER=CM, OPTION="FLUX_ELGA", TEMP=TEMP, MODE_FOURIER=2)

TEST_RESU(
    CHAM_NO=(
        _F(
            GROUP_NO="N76",
            CRITERE="RELATIF",
            NOM_CMP="TEMP",
            PRECISION=1.0e-2,
            CHAM_GD=TEMP,
            VALE_CALC=0.250022244,
            VALE_REFE=0.25,
            REFERENCE="NON_DEFINI",
        ),
        _F(
            GROUP_NO="N78",
            CRITERE="RELATIF",
            NOM_CMP="TEMP",
            PRECISION=1.0e-2,
            CHAM_GD=TEMP,
            VALE_CALC=0.249808212,
            VALE_REFE=0.25,
            REFERENCE="NON_DEFINI",
        ),
        _F(
            GROUP_NO="N151",
            CRITERE="RELATIF",
            NOM_CMP="TEMP",
            PRECISION=1.0e-2,
            CHAM_GD=TEMP,
            VALE_CALC=0.999513377,
            VALE_REFE=1.0,
            REFERENCE="NON_DEFINI",
        ),
        _F(
            GROUP_NO="N152",
            CRITERE="RELATIF",
            NOM_CMP="TEMP",
            PRECISION=1.0e-2,
            CHAM_GD=TEMP,
            VALE_CALC=0.999928845,
            VALE_REFE=1.0,
            REFERENCE="NON_DEFINI",
        ),
        _F(
            GROUP_NO="N153",
            CRITERE="RELATIF",
            NOM_CMP="TEMP",
            PRECISION=1.0e-2,
            CHAM_GD=TEMP,
            VALE_CALC=1.000329698,
            VALE_REFE=1.0,
            REFERENCE="NON_DEFINI",
        ),
    )
)

# --------------------------------------------------------------------

TR1 = POST_RELEVE_T(
    ACTION=_F(
        OPERATION="EXTRACTION",
        INTITULE="EXT_FLUX",
        CHAM_GD=FLUXNO,
        GROUP_NO=("N151", "N152", "N153", "N76", "N78"),
        NOM_CMP=("FLUX", "FLUY", "FLUZ"),
    )
)
#

TEST_TABLE(
    PRECISION=0.02,
    VALE_CALC=-1.977216837,
    VALE_REFE=-2.0,
    REFERENCE="NON_DEFINI",
    NOM_PARA="FLUX",
    TABLE=TR1,
    FILTRE=_F(NOM_PARA="NOEUD", VALE_K="151"),
)

TEST_TABLE(
    PRECISION=1.0e-2,
    VALE_CALC=-1.981901093,
    VALE_REFE=-2.0,
    REFERENCE="NON_DEFINI",
    NOM_PARA="FLUX",
    TABLE=TR1,
    FILTRE=_F(NOM_PARA="NOEUD", VALE_K="152"),
)

TEST_TABLE(
    PRECISION=1.0e-2,
    VALE_CALC=-1.985552968,
    VALE_REFE=-2.0,
    REFERENCE="NON_DEFINI",
    NOM_PARA="FLUX",
    TABLE=TR1,
    FILTRE=_F(NOM_PARA="NOEUD", VALE_K="153"),
)

TEST_TABLE(
    PRECISION=1.0e-2,
    VALE_CALC=-0.993211395,
    VALE_REFE=-1.0,
    REFERENCE="NON_DEFINI",
    NOM_PARA="FLUX",
    TABLE=TR1,
    FILTRE=_F(NOM_PARA="NOEUD", VALE_K="76"),
)

TEST_TABLE(
    PRECISION=1.0e-2,
    VALE_CALC=-1.006817220,
    VALE_REFE=-1.0,
    REFERENCE="NON_DEFINI",
    NOM_PARA="FLUX",
    TABLE=TR1,
    FILTRE=_F(NOM_PARA="NOEUD", VALE_K="78"),
)

#

TEST_TABLE(
    PRECISION=0.02,
    VALE_CALC=1.979651836,
    VALE_REFE=2.0,
    REFERENCE="NON_DEFINI",
    NOM_PARA="FLUZ",
    TABLE=TR1,
    FILTRE=_F(NOM_PARA="NOEUD", VALE_K="151"),
)

TEST_TABLE(
    PRECISION=1.0e-2,
    VALE_CALC=1.982383544,
    VALE_REFE=2.0,
    REFERENCE="NON_DEFINI",
    NOM_PARA="FLUZ",
    TABLE=TR1,
    FILTRE=_F(NOM_PARA="NOEUD", VALE_K="152"),
)

TEST_TABLE(
    PRECISION=1.0e-2,
    VALE_CALC=1.987165906,
    VALE_REFE=2.0,
    REFERENCE="NON_DEFINI",
    NOM_PARA="FLUZ",
    TABLE=TR1,
    FILTRE=_F(NOM_PARA="NOEUD", VALE_K="153"),
)

TEST_TABLE(
    PRECISION=1.0e-2,
    VALE_CALC=0.991367624,
    VALE_REFE=1.0,
    REFERENCE="NON_DEFINI",
    NOM_PARA="FLUZ",
    TABLE=TR1,
    FILTRE=_F(NOM_PARA="NOEUD", VALE_K="76"),
)

TEST_TABLE(
    PRECISION=1.0e-2,
    VALE_CALC=1.008668874,
    VALE_REFE=1.0,
    REFERENCE="NON_DEFINI",
    NOM_PARA="FLUZ",
    TABLE=TR1,
    FILTRE=_F(NOM_PARA="NOEUD", VALE_K="78"),
)

#

TEST_TABLE(
    CRITERE="ABSOLU",
    PRECISION=1.0e-2,
    VALE_CALC=-3.58298245e-03,
    VALE_REFE=0.0,
    REFERENCE="NON_DEFINI",
    NOM_PARA="FLUY",
    TABLE=TR1,
    FILTRE=_F(NOM_PARA="NOEUD", VALE_K="151"),
)

TEST_TABLE(
    CRITERE="ABSOLU",
    PRECISION=1.0e-2,
    VALE_CALC=-3.69205865e-03,
    VALE_REFE=0.0,
    REFERENCE="NON_DEFINI",
    NOM_PARA="FLUY",
    TABLE=TR1,
    FILTRE=_F(NOM_PARA="NOEUD", VALE_K="152"),
)

TEST_TABLE(
    CRITERE="ABSOLU",
    PRECISION=1.0e-2,
    VALE_CALC=-4.00852479e-03,
    VALE_REFE=0.0,
    REFERENCE="NON_DEFINI",
    NOM_PARA="FLUY",
    TABLE=TR1,
    FILTRE=_F(NOM_PARA="NOEUD", VALE_K="153"),
)

TEST_TABLE(
    CRITERE="ABSOLU",
    PRECISION=1.0e-2,
    VALE_CALC=1.08387984e-03,
    VALE_REFE=0.0,
    REFERENCE="NON_DEFINI",
    NOM_PARA="FLUY",
    TABLE=TR1,
    FILTRE=_F(NOM_PARA="NOEUD", VALE_K="76"),
)

TEST_TABLE(
    CRITERE="ABSOLU",
    PRECISION=1.0e-2,
    VALE_CALC=1.05821643e-03,
    VALE_REFE=0.0,
    REFERENCE="NON_DEFINI",
    NOM_PARA="FLUY",
    TABLE=TR1,
    FILTRE=_F(NOM_PARA="NOEUD", VALE_K="78"),
)

FIN()
#
