# coding=utf-8
# --------------------------------------------------------------------
# Copyright (C) 1991 - 2025 - EDF R&D - www.code-aster.org
# This file is part of code_aster.
#
# code_aster is free software: you can redistribute it and/or modify
# it under the terms of the GNU General Public License as published by
# the Free Software Foundation, either version 3 of the License, or
# (at your option) any later version.
#
# code_aster is distributed in the hope that it will be useful,
# but WITHOUT ANY WARRANTY; without even the implied warranty of
# MERCHANTABILITY or FITNESS FOR A PARTICULAR PURPOSE.  See the
# GNU General Public License for more details.
#
# You should have received a copy of the GNU General Public License
# along with code_aster.  If not, see <http://www.gnu.org/licenses/>.
# --------------------------------------------------------------------

DEBUT(CODE="OUI", ERREUR=_F(ALARME="EXCEPTION"), DEBUG=_F(SDVERI="OUI"))

MA = LIRE_MAILLAGE(FORMAT="ASTER")

MO = AFFE_MODELE(MAILLAGE=MA, AFFE=_F(TOUT="OUI", PHENOMENE="THERMIQUE", MODELISATION="PLAN"))

RHOCP = DEFI_CONSTANTE(VALE=0.0)

# LAMBD=DEFI_CONSTANTE(VALE=1.,)
# Modified LAMBDA to test STATIONNAIRE + VALE in initial state
LAMBD = DEFI_FONCTION(NOM_PARA="TEMP", PROL_GAUCHE="LINEAIRE", VALE=(1.0, 1.0, 100.0, 1.0))


MAT = DEFI_MATERIAU(THER_NL=_F(LAMBDA=LAMBD, RHO_CP=RHOCP))

CHMAT = AFFE_MATERIAU(MAILLAGE=MA, AFFE=_F(TOUT="OUI", MATER=MAT))

CH = AFFE_CHAR_THER(
    MODELE=MO,
    SOURCE=(_F(GROUP_MA=("M1", "M2", "M3"), SOUR=-4.0), _F(GROUP_MA=("M4", "M5", "M6"), SOUR=-3.0)),
    LIAISON_GROUP=_F(
        GROUP_MA_1="GROUP_MA_LG_1",
        GROUP_MA_2="GROUP_MA_LG_2",
        SANS_GROUP_NO=("N9", "N28", "N31"),
        DDL_1="TEMP",
        DDL_2="TEMP",
        COEF_MULT_1=1.0,
        COEF_MULT_2=-1.0,
        COEF_IMPO=-1.0,
    ),
    FLUX_REP=(_F(GROUP_MA="GROUP_MA_X3", FLUN=3.0), _F(GROUP_MA="GROUP_MA_Y3", FLUN=6.0)),
    TEMP_IMPO=(_F(GROUP_NO="N1", TEMP=0.0), _F(GROUP_NO="N20", TEMP=4.5)),
)

# Le chargement d'echange_paroi est en 2 parties pour permettre de valider
# en meme temps les options THER_PARO_R et THER_PARO_F
COEFH = DEFI_CONSTANTE(VALE=2.0)

CH2 = AFFE_CHAR_THER_F(
    MODELE=MO, ECHANGE_PAROI=_F(GROUP_MA_1=("M8", "M9"), GROUP_MA_2=("M12", "M11"), COEF_H=COEFH)
)

LR8 = DEFI_LIST_REEL(DEBUT=0.0, INTERVALLE=_F(JUSQU_A=10.0, NOMBRE=2))

TEMPE = THER_NON_LINE(
    MODELE=MO,
    CHAM_MATER=CHMAT,
    EXCIT=(_F(CHARGE=CH), _F(CHARGE=CH2)),
    INCREMENT=_F(LIST_INST=LR8),
    ETAT_INIT=_F(STAT="OUI"),
)

T0 = CREA_CHAMP(
    TYPE_CHAM="NOEU_TEMP_R", OPERATION="EXTR", RESULTAT=TEMPE, NOM_CHAM="TEMP", NUME_ORDRE=0
)

T2 = CREA_CHAMP(
    TYPE_CHAM="NOEU_TEMP_R", OPERATION="EXTR", RESULTAT=TEMPE, NOM_CHAM="TEMP", NUME_ORDRE=2
)

TEST_RESU(
    CHAM_NO=(
        _F(
            GROUP_NO="N2",
            NOM_CMP="TEMP",
            CHAM_GD=T0,
            VALE_REFE=1.0,
            VALE_CALC=1.0,
            REFERENCE="ANALYTIQUE",
        ),
        _F(
            GROUP_NO="N3",
            NOM_CMP="TEMP",
            CHAM_GD=T0,
            VALE_REFE=2.0,
            VALE_CALC=2.0,
            REFERENCE="ANALYTIQUE",
        ),
        _F(
            GROUP_NO="N6",
            NOM_CMP="TEMP",
            CHAM_GD=T0,
            VALE_REFE=1.25,
            VALE_CALC=1.25,
            REFERENCE="ANALYTIQUE",
        ),
        _F(
            GROUP_NO="N11",
            NOM_CMP="TEMP",
            CHAM_GD=T0,
            VALE_REFE=3.25,
            VALE_CALC=3.25,
            REFERENCE="ANALYTIQUE",
        ),
        _F(
            GROUP_NO="N9",
            NOM_CMP="TEMP",
            CHAM_GD=T0,
            VALE_REFE=5.0,
            VALE_CALC=5.0,
            REFERENCE="ANALYTIQUE",
        ),
        _F(
            GROUP_NO="N16",
            NOM_CMP="TEMP",
            CHAM_GD=T0,
            VALE_REFE=7.25,
            VALE_CALC=7.25,
            REFERENCE="ANALYTIQUE",
        ),
        _F(
            GROUP_NO="N14",
            NOM_CMP="TEMP",
            CHAM_GD=T0,
            VALE_REFE=10.0,
            VALE_CALC=10.0,
            REFERENCE="ANALYTIQUE",
        ),
        _F(
            GROUP_NO="N2",
            NOM_CMP="TEMP",
            CHAM_GD=T2,
            VALE_REFE=1.0,
            VALE_CALC=1.0,
            REFERENCE="ANALYTIQUE",
        ),
        _F(
            GROUP_NO="N3",
            NOM_CMP="TEMP",
            CHAM_GD=T2,
            VALE_REFE=2.0,
            VALE_CALC=2.0,
            REFERENCE="ANALYTIQUE",
        ),
        _F(
            GROUP_NO="N6",
            NOM_CMP="TEMP",
            CHAM_GD=T2,
            VALE_REFE=1.25,
            VALE_CALC=1.25,
            REFERENCE="ANALYTIQUE",
        ),
        _F(
            GROUP_NO="N11",
            NOM_CMP="TEMP",
            CHAM_GD=T2,
            VALE_REFE=3.25,
            VALE_CALC=3.25,
            REFERENCE="ANALYTIQUE",
        ),
        _F(
            GROUP_NO="N9",
            NOM_CMP="TEMP",
            CHAM_GD=T2,
            VALE_REFE=5.0,
            VALE_CALC=5.0,
            REFERENCE="ANALYTIQUE",
        ),
        _F(
            GROUP_NO="N16",
            NOM_CMP="TEMP",
            CHAM_GD=T2,
            VALE_REFE=7.25,
            VALE_CALC=7.25,
            REFERENCE="ANALYTIQUE",
        ),
        _F(
            GROUP_NO="N14",
            NOM_CMP="TEMP",
            CHAM_GD=T2,
            VALE_REFE=10.0,
            VALE_CALC=10.0,
            REFERENCE="ANALYTIQUE",
        ),
        _F(
            GROUP_NO="N19",
            NOM_CMP="TEMP",
            CHAM_GD=T0,
            VALE_REFE=2.0,
            VALE_CALC=2.0,
            REFERENCE="ANALYTIQUE",
        ),
        _F(
            GROUP_NO="N22",
            NOM_CMP="TEMP",
            CHAM_GD=T0,
            VALE_REFE=3.0,
            VALE_CALC=3.0,
            REFERENCE="ANALYTIQUE",
        ),
        _F(
            GROUP_NO="N26",
            NOM_CMP="TEMP",
            CHAM_GD=T0,
            VALE_REFE=2.25,
            VALE_CALC=2.25,
            REFERENCE="ANALYTIQUE",
        ),
        _F(
            GROUP_NO="N31",
            NOM_CMP="TEMP",
            CHAM_GD=T0,
            VALE_REFE=4.25,
            VALE_CALC=4.25,
            REFERENCE="ANALYTIQUE",
        ),
        _F(
            GROUP_NO="N28",
            NOM_CMP="TEMP",
            CHAM_GD=T0,
            VALE_REFE=6.0,
            VALE_CALC=6.0,
            REFERENCE="ANALYTIQUE",
        ),
        _F(
            GROUP_NO="N36",
            NOM_CMP="TEMP",
            CHAM_GD=T0,
            VALE_REFE=8.25,
            VALE_CALC=8.25,
            REFERENCE="ANALYTIQUE",
        ),
        _F(
            GROUP_NO="N33",
            NOM_CMP="TEMP",
            CHAM_GD=T0,
            VALE_REFE=11.0,
            VALE_CALC=11.0,
            REFERENCE="ANALYTIQUE",
        ),
        _F(
            GROUP_NO="N19",
            NOM_CMP="TEMP",
            CHAM_GD=T2,
            VALE_REFE=2.0,
            VALE_CALC=2.0,
            REFERENCE="ANALYTIQUE",
        ),
        _F(
            GROUP_NO="N22",
            NOM_CMP="TEMP",
            CHAM_GD=T2,
            VALE_REFE=3.0,
            VALE_CALC=3.0,
            REFERENCE="ANALYTIQUE",
        ),
        _F(
            GROUP_NO="N26",
            NOM_CMP="TEMP",
            CHAM_GD=T2,
            VALE_REFE=2.25,
            VALE_CALC=2.25,
            REFERENCE="ANALYTIQUE",
        ),
        _F(
            GROUP_NO="N31",
            NOM_CMP="TEMP",
            CHAM_GD=T2,
            VALE_REFE=4.25,
            VALE_CALC=4.25,
            REFERENCE="ANALYTIQUE",
        ),
        _F(
            GROUP_NO="N28",
            NOM_CMP="TEMP",
            CHAM_GD=T2,
            VALE_REFE=6.0,
            VALE_CALC=6.0,
            REFERENCE="ANALYTIQUE",
        ),
        _F(
            GROUP_NO="N36",
            NOM_CMP="TEMP",
            CHAM_GD=T2,
            VALE_REFE=8.25,
            VALE_CALC=8.25,
            REFERENCE="ANALYTIQUE",
        ),
        _F(
            GROUP_NO="N33",
            NOM_CMP="TEMP",
            CHAM_GD=T2,
            VALE_REFE=11.0,
            VALE_CALC=11.0,
            REFERENCE="ANALYTIQUE",
        ),
    )
)


LR8_ST = DEFI_LIST_REEL(VALE=(10.0,))

TEMPE_ST = THER_NON_LINE(
    MODELE=MO,
    CHAM_MATER=CHMAT,
    EXCIT=(_F(CHARGE=CH), _F(CHARGE=CH2)),
    INCREMENT=_F(LIST_INST=LR8_ST),
    ETAT_INIT=_F(STAT="OUI"),
)

T0_ST = CREA_CHAMP(
    TYPE_CHAM="NOEU_TEMP_R", OPERATION="EXTR", RESULTAT=TEMPE_ST, NOM_CHAM="TEMP", INST=10.0
)


TEST_RESU(
    CHAM_NO=(
        _F(
            GROUP_NO="N2",
            NOM_CMP="TEMP",
            CHAM_GD=T0_ST,
            VALE_REFE=1.0,
            VALE_CALC=1.0,
            REFERENCE="ANALYTIQUE",
        ),
        _F(
            GROUP_NO="N3",
            NOM_CMP="TEMP",
            CHAM_GD=T0_ST,
            VALE_REFE=2.0,
            VALE_CALC=2.0,
            REFERENCE="ANALYTIQUE",
        ),
        _F(
            GROUP_NO="N6",
            NOM_CMP="TEMP",
            CHAM_GD=T0_ST,
            VALE_REFE=1.25,
            VALE_CALC=1.25,
            REFERENCE="ANALYTIQUE",
        ),
        _F(
            GROUP_NO="N11",
            NOM_CMP="TEMP",
            CHAM_GD=T0_ST,
            VALE_REFE=3.25,
            VALE_CALC=3.25,
            REFERENCE="ANALYTIQUE",
        ),
        _F(
            GROUP_NO="N9",
            NOM_CMP="TEMP",
            CHAM_GD=T0_ST,
            VALE_REFE=5.0,
            VALE_CALC=5.0,
            REFERENCE="ANALYTIQUE",
        ),
        _F(
            GROUP_NO="N16",
            NOM_CMP="TEMP",
            CHAM_GD=T0_ST,
            VALE_REFE=7.25,
            VALE_CALC=7.25,
            REFERENCE="ANALYTIQUE",
        ),
        _F(
            GROUP_NO="N14",
            NOM_CMP="TEMP",
            CHAM_GD=T0_ST,
            VALE_REFE=10.0,
            VALE_CALC=10.0,
            REFERENCE="ANALYTIQUE",
        ),
        _F(
            GROUP_NO="N19",
            NOM_CMP="TEMP",
            CHAM_GD=T0_ST,
            VALE_REFE=2.0,
            VALE_CALC=2.0,
            REFERENCE="ANALYTIQUE",
        ),
        _F(
            GROUP_NO="N22",
            NOM_CMP="TEMP",
            CHAM_GD=T0_ST,
            VALE_REFE=3.0,
            VALE_CALC=3.0,
            REFERENCE="ANALYTIQUE",
        ),
        _F(
            GROUP_NO="N26",
            NOM_CMP="TEMP",
            CHAM_GD=T0_ST,
            VALE_REFE=2.25,
            VALE_CALC=2.25,
            REFERENCE="ANALYTIQUE",
        ),
        _F(
            GROUP_NO="N31",
            NOM_CMP="TEMP",
            CHAM_GD=T0_ST,
            VALE_REFE=4.25,
            VALE_CALC=4.25,
            REFERENCE="ANALYTIQUE",
        ),
        _F(
            GROUP_NO="N28",
            NOM_CMP="TEMP",
            CHAM_GD=T0_ST,
            VALE_REFE=6.0,
            VALE_CALC=6.0,
            REFERENCE="ANALYTIQUE",
        ),
        _F(
            GROUP_NO="N36",
            NOM_CMP="TEMP",
            CHAM_GD=T0_ST,
            VALE_REFE=8.25,
            VALE_CALC=8.25,
            REFERENCE="ANALYTIQUE",
        ),
        _F(
            GROUP_NO="N33",
            NOM_CMP="TEMP",
            CHAM_GD=T0_ST,
            VALE_REFE=11.0,
            VALE_CALC=11.0,
            REFERENCE="ANALYTIQUE",
        ),
    )
)

FIN()
