# coding=utf-8
# --------------------------------------------------------------------
# Copyright (C) 1991 - 2025 - EDF R&D - www.code-aster.org
# This file is part of code_aster.
#
# code_aster is free software: you can redistribute it and/or modify
# it under the terms of the GNU General Public License as published by
# the Free Software Foundation, either version 3 of the License, or
# (at your option) any later version.
#
# code_aster is distributed in the hope that it will be useful,
# but WITHOUT ANY WARRANTY; without even the implied warranty of
# MERCHANTABILITY or FITNESS FOR A PARTICULAR PURPOSE.  See the
# GNU General Public License for more details.
#
# You should have received a copy of the GNU General Public License
# along with code_aster.  If not, see <http://www.gnu.org/licenses/>.
# --------------------------------------------------------------------

#             TEST PERMETTANT LA POURSUITE D'UN CALCUL

DEBUT(CODE="OUI", ERREUR=_F(ALARME="EXCEPTION"), DEBUG=_F(SDVERI="OUI"))

MAIL = LIRE_MAILLAGE(FORMAT="MED")

MAIL = DEFI_GROUP(
    reuse=MAIL,
    MAILLAGE=MAIL,
    CREA_GROUP_NO=(
        _F(GROUP_MA="LSUP"),
        _F(GROUP_MA="LINF"),
        _F(GROUP_MA="LZA"),
        _F(GROUP_MA="DC1"),
        _F(GROUP_MA="DC2"),
    ),
)

ENTHAL = DEFI_FONCTION(
    NOM_PARA="TEMP",
    VALE=(0.000, 0.000, 7.00e2, 2.979, 1.37e3, 6.232, 1.40e3, 8.184, 1.45e3, 8.444),
    PROL_DROITE="LINEAIRE",
    PROL_GAUCHE="LINEAIRE",
)

CONDUC = DEFI_FONCTION(
    NOM_PARA="TEMP",
    VALE=(
        20.0,
        14.0e-3,
        50.0,
        14.4e-3,
        100.0,
        15.2e-3,
        150.0,
        15.8e-3,
        200.0,
        16.6e-3,
        250.0,
        17.3e-3,
        300.0,
        17.9e-3,
        350.0,
        18.6e-3,
        400.0,
        19.2e-3,
        450.0,
        19.9e-3,
# ... 24 like lines cut
    ),
    PROL_DROITE="CONSTANT",
    PROL_GAUCHE="CONSTANT",
)

QINOX = DEFI_FONCTION(
    NOM_PARA="TEMP",
    VALE=(
        20.0,
        -0.00e-3,
        100.0,
        -1.76e-3,
        200.0,
        -5.04e-3,
        300.0,
        -9.80e-3,
        400.0,
        -16.34e-3,
        500.0,
        -25.92e-3,
        600.0,
        -38.86e-3,
        700.0,
        -56.44e-3,
        800.0,
        -79.56e-3,
        900.0,
        -10.82e-2,
# ... 12 like lines cut
    ),
    PROL_DROITE="LINEAIRE",
    PROL_GAUCHE="LINEAIRE",
)

Q1 = DEFI_CONSTANTE(VALE=4.0)

Q0 = DEFI_CONSTANTE(VALE=15.62)

TIMPO = DEFI_CONSTANTE(VALE=20.0)

HECHA = DEFI_CONSTANTE(VALE=15.0e-6)

INOX = DEFI_MATERIAU(THER_NL=_F(LAMBDA=CONDUC, BETA=ENTHAL))

IMAT = AFFE_MATERIAU(MAILLAGE=MAIL, AFFE=_F(TOUT="OUI", MATER=INOX))

MOTH = AFFE_MODELE(MAILLAGE=MAIL, AFFE=_F(TOUT="OUI", PHENOMENE="THERMIQUE", MODELISATION="PLAN"))

VITESS = CREA_CHAMP(
    TYPE_CHAM="NOEU_DEPL_R",
    OPERATION="AFFE",
    MAILLAGE=MAIL,
    AFFE=_F(TOUT="OUI", NOM_CMP=("DX", "DY"), VALE=(-2.33, 0.0)),
)

CHTHF1 = AFFE_CHAR_THER_F(
    MODELE=MOTH,
    TEMP_IMPO=_F(GROUP_NO="DC2", TEMP=TIMPO),
    FLUX_REP=_F(GROUP_MA="LZA", FLUN=Q1),
    FLUX_NL=(_F(GROUP_MA="LSUP", FLUN=QINOX), _F(GROUP_MA="LINF", FLUN=QINOX)),
    CONVECTION=_F(VITESSE=VITESS),
)

CHTHF2 = AFFE_CHAR_THER(
    MODELE=MOTH,
    ECHANGE=(
        _F(GROUP_MA="LSUP", COEF_H=15.0e-6, TEMP_EXT=20.0),
        _F(GROUP_MA="LINF", COEF_H=15.0e-6, TEMP_EXT=20.0),
    ),
)

CHTHF = AFFE_CHAR_THER_F(
    MODELE=MOTH,
    TEMP_IMPO=_F(GROUP_NO="DC2", TEMP=TIMPO),
    FLUX_REP=_F(GROUP_MA="LZA", FLUN=Q0),
    FLUX_NL=(_F(GROUP_MA="LSUP", FLUN=QINOX), _F(GROUP_MA="LINF", FLUN=QINOX)),
    ECHANGE=(
        _F(GROUP_MA="LSUP", COEF_H=HECHA, TEMP_EXT=TIMPO),
        _F(GROUP_MA="LINF", COEF_H=HECHA, TEMP_EXT=TIMPO),
    ),
    CONVECTION=_F(VITESSE=VITESS),
)

TEMPE = THER_NON_LINE_MO(
    MODELE=MOTH,
    CHAM_MATER=IMAT,
    EXCIT=(_F(CHARGE=CHTHF1), _F(CHARGE=CHTHF2)),
    CONVERGENCE=_F(CRIT_TEMP_RELA=1.0e-4, CRIT_ENTH_RELA=1.0e-3, ITER_GLOB_MAXI=30),
)

TEMPE2 = THER_NON_LINE_MO(
    MODELE=MOTH,
    CHAM_MATER=IMAT,
    EXCIT=_F(CHARGE=CHTHF),
    ETAT_INIT=_F(EVOL_THER=TEMPE),
    CONVERGENCE=_F(CRIT_TEMP_RELA=1.0e-4, CRIT_ENTH_RELA=1.0e-3, ITER_GLOB_MAXI=30),
)

# VALEURS DE REFERENCE:

T_0 = CREA_CHAMP(
    TYPE_CHAM="NOEU_TEMP_R", OPERATION="EXTR", RESULTAT=TEMPE2, NOM_CHAM="TEMP", NUME_ORDRE=0
)

TEST_RESU(
    CHAM_NO=(
        _F(
            GROUP_NO="N1",
            NOM_CMP="TEMP",
            PRECISION=1.0e-2,
            CHAM_GD=T_0,
            VALE_CALC=1.75611100e03,
            VALE_REFE=1755.0,
            REFERENCE="NON_DEFINI",
        ),
        _F(
            GROUP_NO="N2",
            NOM_CMP="TEMP",
            PRECISION=1.0e-2,
            CHAM_GD=T_0,
            VALE_CALC=1.91929487e03,
            VALE_REFE=1920.0,
            REFERENCE="NON_DEFINI",
        ),
        _F(
            GROUP_NO="N3",
            NOM_CMP="TEMP",
            PRECISION=1.0e-2,
            CHAM_GD=T_0,
            VALE_CALC=1.90862643e03,
            VALE_REFE=1910.0,
            REFERENCE="NON_DEFINI",
        ),
        _F(
            GROUP_NO="N7",
            NOM_CMP="TEMP",
            PRECISION=1.0e-2,
            CHAM_GD=T_0,
            VALE_CALC=1.49345891e03,
            VALE_REFE=1494.0,
            REFERENCE="NON_DEFINI",
        ),
        _F(
            GROUP_NO="N8",
            NOM_CMP="TEMP",
            PRECISION=1.0e-2,
            CHAM_GD=T_0,
            VALE_CALC=1.29751414e03,
            VALE_REFE=1300.0,
            REFERENCE="NON_DEFINI",
        ),
        _F(
            GROUP_NO="N173",
            NOM_CMP="TEMP",
            PRECISION=1.0e-2,
            CHAM_GD=T_0,
            VALE_CALC=1.15576187e03,
            VALE_REFE=1160.0,
            REFERENCE="NON_DEFINI",
        ),
        _F(
            GROUP_NO="N174",
            NOM_CMP="TEMP",
            PRECISION=1.0e-2,
            CHAM_GD=T_0,
            VALE_CALC=1.21331536e03,
            VALE_REFE=1215.0,
            REFERENCE="NON_DEFINI",
        ),
        _F(
            GROUP_NO="N175",
            NOM_CMP="TEMP",
            PRECISION=1.0e-2,
            CHAM_GD=T_0,
            VALE_CALC=1.29185781e03,
            VALE_REFE=1295.0,
            REFERENCE="NON_DEFINI",
        ),
        _F(
            GROUP_NO="N478",
            NOM_CMP="TEMP",
            PRECISION=1.0e-2,
            CHAM_GD=T_0,
            VALE_CALC=1.00109200e03,
            VALE_REFE=1007.0,
            REFERENCE="NON_DEFINI",
        ),
        _F(
            GROUP_NO="N522",
            NOM_CMP="TEMP",
            PRECISION=1.0e-2,
            CHAM_GD=T_0,
            VALE_CALC=982.393492108,
            VALE_REFE=989.0,
            REFERENCE="NON_DEFINI",
        ),
        _F(
            GROUP_NO="N559",
            NOM_CMP="TEMP",
            PRECISION=1.0e-2,
            CHAM_GD=T_0,
            VALE_CALC=973.916466590,
            VALE_REFE=980.0,
            REFERENCE="NON_DEFINI",
        ),
    )
)

FIN()

#
