# coding=utf-8
# --------------------------------------------------------------------
# Copyright (C) 1991 - 2025 - EDF R&D - www.code-aster.org
# This file is part of code_aster.
#
# code_aster is free software: you can redistribute it and/or modify
# it under the terms of the GNU General Public License as published by
# the Free Software Foundation, either version 3 of the License, or
# (at your option) any later version.
#
# code_aster is distributed in the hope that it will be useful,
# but WITHOUT ANY WARRANTY; without even the implied warranty of
# MERCHANTABILITY or FITNESS FOR A PARTICULAR PURPOSE.  See the
# GNU General Public License for more details.
#
# You should have received a copy of the GNU General Public License
# along with code_aster.  If not, see <http://www.gnu.org/licenses/>.
# --------------------------------------------------------------------

#
# MAILLES : HEXA8 , PENTA6
#

DEBUT(CODE="OUI", ERREUR=_F(ALARME="EXCEPTION"), DEBUG=_F(SDVERI="OUI"))

#
# LECTURE DU MAILLAGE ----------------------------------------------
#

MAIL = LIRE_MAILLAGE(FORMAT="MED")

#
# DEFINITION DU MATERIAU ------------------------
#

CONDUC = DEFI_FONCTION(
    NOM_PARA="TEMP",
    NOM_RESU="LAMBDA",
    VALE=(0.0, 21.461, 100.0, 44.861),
    PROL_DROITE="LINEAIRE",
    PROL_GAUCHE="LINEAIRE",
)

ENTHAL = DEFI_FONCTION(
    NOM_PARA="TEMP",
    NOM_RESU="BETA",
    VALE=(0.0, 0.0, 100.0, 100.0),
    PROL_DROITE="LINEAIRE",
    PROL_GAUCHE="LINEAIRE",
)

MATER = DEFI_MATERIAU(THER_NL=_F(LAMBDA=CONDUC, BETA=ENTHAL))

#
# AFFECTATIONS: MATERIAU, MODELE, CHARGEMENT ----------------------
#

CHMAT = AFFE_MATERIAU(MAILLAGE=MAIL, AFFE=_F(TOUT="OUI", MATER=MATER))

MOTH = AFFE_MODELE(MAILLAGE=MAIL, AFFE=_F(TOUT="OUI", MODELISATION="3D", PHENOMENE="THERMIQUE"))

CHARGE = AFFE_CHAR_THER(
    MODELE=MOTH,
    TEMP_IMPO=(_F(GROUP_NO="NOE_EXT", TEMP=-17.78), _F(GROUP_NO="NOE_INT", TEMP=-17.78)),
    SOURCE=_F(TOUT="OUI", SOUR=1.035e7),
)

#
# RESOLUTION ------------------------------------------------------
#
LREEL = DEFI_LIST_REEL(VALE=0.0)

TEMPE = THER_NON_LINE(
    MODELE=MOTH,
    TYPE_CALCUL="STAT",
    CHAM_MATER=CHMAT,
    EXCIT=_F(CHARGE=CHARGE),
    INCREMENT=_F(LIST_INST=LREEL),
)

T_RES = CREA_CHAMP(
    OPERATION="EXTR", TYPE_CHAM="NOEU_TEMP_R", NOM_CHAM="TEMP", RESULTAT=TEMPE, INST=0.0
)

#
# ANALYSE DES RESULTATS -------------------------------------------
#

TEST_RESU(
    CHAM_NO=(
        _F(
            GROUP_NO="N11",
            NOM_CMP="TEMP",
            PRECISION=0.050000000000000003,
            CHAM_GD=T_RES,
            VALE_CALC=-17.780000000,
            VALE_REFE=-17.780000000000001,
            REFERENCE="NON_DEFINI",
        ),
        _F(
            GROUP_NO="N22",
            NOM_CMP="TEMP",
            PRECISION=0.050000000000000003,
            CHAM_GD=T_RES,
            VALE_CALC=-4.904339887,
            VALE_REFE=-5.0,
            REFERENCE="NON_DEFINI",
        ),
        _F(
            GROUP_NO="N43",
            NOM_CMP="TEMP",
            PRECISION=0.059999999999999998,
            CHAM_GD=T_RES,
            VALE_CALC=2.088263316,
            VALE_REFE=2.2200000000000002,
            REFERENCE="NON_DEFINI",
        ),
        _F(
            GROUP_NO="N67",
            NOM_CMP="TEMP",
            PRECISION=0.050000000000000003,
            CHAM_GD=T_RES,
            VALE_CALC=5.582347454,
            VALE_REFE=5.5599999999999996,
            REFERENCE="NON_DEFINI",
        ),
        _F(
            GROUP_NO="N102",
            NOM_CMP="TEMP",
            PRECISION=0.050000000000000003,
            CHAM_GD=T_RES,
            VALE_CALC=6.632098396,
            VALE_REFE=6.6699999999999999,
            REFERENCE="NON_DEFINI",
        ),
        _F(
            GROUP_NO="N150",
            NOM_CMP="TEMP",
            PRECISION=0.050000000000000003,
            CHAM_GD=T_RES,
            VALE_CALC=5.614923369,
            VALE_REFE=5.5599999999999996,
            REFERENCE="NON_DEFINI",
        ),
        _F(
            GROUP_NO="N208",
            NOM_CMP="TEMP",
            PRECISION=0.050000000000000003,
            CHAM_GD=T_RES,
            VALE_CALC=2.773923045,
            VALE_REFE=2.7799999999999998,
            REFERENCE="NON_DEFINI",
        ),
        _F(
            GROUP_NO="N251",
            NOM_CMP="TEMP",
            PRECISION=0.16,
            CHAM_GD=T_RES,
            VALE_CALC=-1.921263684,
            VALE_REFE=-1.6699999999999999,
            REFERENCE="NON_DEFINI",
        ),
        _F(
            GROUP_NO="N291",
            NOM_CMP="TEMP",
            PRECISION=0.050000000000000003,
            CHAM_GD=T_RES,
            VALE_CALC=-8.625691190,
            VALE_REFE=-8.8900000000000006,
            REFERENCE="NON_DEFINI",
        ),
        _F(
            GROUP_NO="N307",
            NOM_CMP="TEMP",
            PRECISION=0.050000000000000003,
            CHAM_GD=T_RES,
            VALE_CALC=-17.780000000,
            VALE_REFE=-17.780000000000001,
            REFERENCE="NON_DEFINI",
        ),
        _F(
            GROUP_NO="N3",
            NOM_CMP="TEMP",
            PRECISION=0.050000000000000003,
            CHAM_GD=T_RES,
            VALE_CALC=-17.780000000,
            VALE_REFE=-17.780000000000001,
            REFERENCE="NON_DEFINI",
        ),
        _F(
            GROUP_NO="N14",
            NOM_CMP="TEMP",
            PRECISION=0.050000000000000003,
            CHAM_GD=T_RES,
            VALE_CALC=-4.904340882,
            VALE_REFE=-5.0,
            REFERENCE="NON_DEFINI",
        ),
        _F(
            GROUP_NO="N30",
            NOM_CMP="TEMP",
            PRECISION=0.059999999999999998,
            CHAM_GD=T_RES,
            VALE_CALC=2.088262841,
            VALE_REFE=2.2200000000000002,
            REFERENCE="NON_DEFINI",
        ),
        _F(
            GROUP_NO="N51",
            NOM_CMP="TEMP",
            PRECISION=0.050000000000000003,
            CHAM_GD=T_RES,
            VALE_CALC=5.582346191,
            VALE_REFE=5.5599999999999996,
            REFERENCE="NON_DEFINI",
        ),
        _F(
            GROUP_NO="N68",
            NOM_CMP="TEMP",
            PRECISION=0.050000000000000003,
            CHAM_GD=T_RES,
            VALE_CALC=6.632098372,
            VALE_REFE=6.6699999999999999,
            REFERENCE="NON_DEFINI",
        ),
        _F(
            GROUP_NO="N90",
            NOM_CMP="TEMP",
            PRECISION=0.050000000000000003,
            CHAM_GD=T_RES,
            VALE_CALC=5.614924298,
            VALE_REFE=5.5599999999999996,
            REFERENCE="NON_DEFINI",
        ),
        _F(
            GROUP_NO="N114",
            NOM_CMP="TEMP",
            PRECISION=0.050000000000000003,
            CHAM_GD=T_RES,
            VALE_CALC=2.773928498,
            VALE_REFE=2.7799999999999998,
            REFERENCE="NON_DEFINI",
        ),
        _F(
            GROUP_NO="N134",
            NOM_CMP="TEMP",
            PRECISION=0.16,
            CHAM_GD=T_RES,
            VALE_CALC=-1.921257693,
            VALE_REFE=-1.6699999999999999,
            REFERENCE="NON_DEFINI",
        ),
        _F(
            GROUP_NO="N151",
            NOM_CMP="TEMP",
            PRECISION=0.050000000000000003,
            CHAM_GD=T_RES,
            VALE_CALC=-8.625684116,
            VALE_REFE=-8.8900000000000006,
            REFERENCE="NON_DEFINI",
        ),
        _F(
            GROUP_NO="N171",
            NOM_CMP="TEMP",
            PRECISION=0.050000000000000003,
            CHAM_GD=T_RES,
            VALE_CALC=-17.780000000,
            VALE_REFE=-17.780000000000001,
            REFERENCE="NON_DEFINI",
        ),
        _F(
            GROUP_NO="N7",
            NOM_CMP="TEMP",
            PRECISION=0.050000000000000003,
            CHAM_GD=T_RES,
            VALE_CALC=-17.780000000,
            VALE_REFE=-17.780000000000001,
            REFERENCE="NON_DEFINI",
        ),
        _F(
            GROUP_NO="N19",
            NOM_CMP="TEMP",
            PRECISION=0.050000000000000003,
            CHAM_GD=T_RES,
            VALE_CALC=-4.927786311,
            VALE_REFE=-5.0,
            REFERENCE="NON_DEFINI",
        ),
        _F(
            GROUP_NO="N37",
            NOM_CMP="TEMP",
            PRECISION=0.050000000000000003,
            CHAM_GD=T_RES,
            VALE_CALC=2.162353348,
            VALE_REFE=2.2200000000000002,
            REFERENCE="NON_DEFINI",
        ),
        _F(
            GROUP_NO="N61",
            NOM_CMP="TEMP",
            PRECISION=0.050000000000000003,
            CHAM_GD=T_RES,
            VALE_CALC=5.544451276,
            VALE_REFE=5.5599999999999996,
            REFERENCE="NON_DEFINI",
        ),
        _F(
            GROUP_NO="N85",
            NOM_CMP="TEMP",
            PRECISION=0.050000000000000003,
            CHAM_GD=T_RES,
            VALE_CALC=6.652170087,
            VALE_REFE=6.6699999999999999,
            REFERENCE="NON_DEFINI",
        ),
        _F(
            GROUP_NO="N124",
            NOM_CMP="TEMP",
            PRECISION=0.050000000000000003,
            CHAM_GD=T_RES,
            VALE_CALC=5.598895319,
            VALE_REFE=5.5599999999999996,
            REFERENCE="NON_DEFINI",
        ),
        _F(
            GROUP_NO="N177",
            NOM_CMP="TEMP",
            PRECISION=0.050000000000000003,
            CHAM_GD=T_RES,
            VALE_CALC=2.822672666,
            VALE_REFE=2.7799999999999998,
            REFERENCE="NON_DEFINI",
        ),
        _F(
            GROUP_NO="N220",
            NOM_CMP="TEMP",
            PRECISION=0.14000000000000001,
            CHAM_GD=T_RES,
            VALE_CALC=-1.902896793,
            VALE_REFE=-1.6699999999999999,
            REFERENCE="NON_DEFINI",
        ),
        _F(
            GROUP_NO="N255",
            NOM_CMP="TEMP",
            PRECISION=0.050000000000000003,
            CHAM_GD=T_RES,
            VALE_CALC=-8.579775952,
            VALE_REFE=-8.8900000000000006,
            REFERENCE="NON_DEFINI",
        ),
        _F(
            GROUP_NO="N266",
            NOM_CMP="TEMP",
            PRECISION=0.050000000000000003,
            CHAM_GD=T_RES,
            VALE_CALC=-17.780000000,
            VALE_REFE=-17.780000000000001,
            REFERENCE="NON_DEFINI",
        ),
    )
)

FIN()
#
#
#
#
#
#
#
