# coding=utf-8
# --------------------------------------------------------------------
# Copyright (C) 1991 - 2025 - EDF R&D - www.code-aster.org
# This file is part of code_aster.
#
# code_aster is free software: you can redistribute it and/or modify
# it under the terms of the GNU General Public License as published by
# the Free Software Foundation, either version 3 of the License, or
# (at your option) any later version.
#
# code_aster is distributed in the hope that it will be useful,
# but WITHOUT ANY WARRANTY; without even the implied warranty of
# MERCHANTABILITY or FITNESS FOR A PARTICULAR PURPOSE.  See the
# GNU General Public License for more details.
#
# You should have received a copy of the GNU General Public License
# along with code_aster.  If not, see <http://www.gnu.org/licenses/>.
# --------------------------------------------------------------------

#
# MAILLES : QUAD8 , TRIA6
#

DEBUT(CODE="OUI", ERREUR=_F(ALARME="EXCEPTION"))

#
# LECTURE DU MAILLAGE ----------------------------------------------
#

MAIL = LIRE_MAILLAGE(FORMAT="MED")

#
# DEFINITION DU MATERIAU ------------------------
#

CONDUC = DEFI_FONCTION(
    NOM_PARA="TEMP",
    NOM_RESU="LAMBDA",
    VALE=(0.0, 21.461, 100.0, 44.861),
    PROL_DROITE="LINEAIRE",
    PROL_GAUCHE="LINEAIRE",
)

ENTHAL = DEFI_FONCTION(
    NOM_PARA="TEMP",
    NOM_RESU="BETA",
    VALE=(0.0, 0.0, 100.0, 100.0),
    PROL_DROITE="LINEAIRE",
    PROL_GAUCHE="LINEAIRE",
)

MATER = DEFI_MATERIAU(THER_NL=_F(LAMBDA=CONDUC, BETA=ENTHAL))

#
# AFFECTATIONS: MATERIAU, MODELE, CHARGEMENT ----------------------
#

CHMAT = AFFE_MATERIAU(MAILLAGE=MAIL, AFFE=_F(TOUT="OUI", MATER=MATER))

MOTH = AFFE_MODELE(MAILLAGE=MAIL, AFFE=_F(TOUT="OUI", MODELISATION="PLAN", PHENOMENE="THERMIQUE"))

CHARGE = AFFE_CHAR_THER(MODELE=MOTH, SOURCE=_F(TOUT="OUI", SOUR=1.035e7))

CINE = AFFE_CHAR_CINE(MODELE=MOTH, THER_IMPO=_F(GROUP_NO="NOE_EXT", TEMP=-17.78))

#
# RESOLUTION ------------------------------------------------------
#
LREEL = DEFI_LIST_REEL(VALE=0.0)

TEMPE = THER_NON_LINE(
    MODELE=MOTH,
    TYPE_CALCUL="STAT",
    CHAM_MATER=CHMAT,
    EXCIT=(_F(CHARGE=CHARGE), _F(CHARGE=CINE)),
    INCREMENT=_F(LIST_INST=LREEL),
)

T_RES = CREA_CHAMP(
    OPERATION="EXTR", TYPE_CHAM="NOEU_TEMP_R", NOM_CHAM="TEMP", RESULTAT=TEMPE, INST=0.0
)

#
# ANALYSE DES RESULTATS -------------------------------------------
#

TEST_RESU(
    CHAM_NO=(
        _F(
            GROUP_NO="N68",
            NOM_CMP="TEMP",
            PRECISION=0.050000000000000003,
            CHAM_GD=T_RES,
            VALE_CALC=-17.780000000,
            VALE_REFE=-17.780000000000001,
            REFERENCE="NON_DEFINI",
        ),
        _F(
            GROUP_NO="N60",
            NOM_CMP="TEMP",
            PRECISION=0.050000000000000003,
            CHAM_GD=T_RES,
            VALE_CALC=-4.840211782,
            VALE_REFE=-5.0,
            REFERENCE="NON_DEFINI",
        ),
        _F(
            GROUP_NO="N46",
            NOM_CMP="TEMP",
            PRECISION=0.050000000000000003,
            CHAM_GD=T_RES,
            VALE_CALC=2.142402743,
            VALE_REFE=2.2200000000000002,
            REFERENCE="NON_DEFINI",
        ),
        _F(
            GROUP_NO="N33",
            NOM_CMP="TEMP",
            PRECISION=0.050000000000000003,
            CHAM_GD=T_RES,
            VALE_CALC=5.645459764,
            VALE_REFE=5.5599999999999996,
            REFERENCE="NON_DEFINI",
        ),
        _F(
            GROUP_NO="N21",
            NOM_CMP="TEMP",
            PRECISION=0.050000000000000003,
            CHAM_GD=T_RES,
            VALE_CALC=6.663971342,
            VALE_REFE=6.6699999999999999,
            REFERENCE="NON_DEFINI",
        ),
        _F(
            GROUP_NO="N13",
            NOM_CMP="TEMP",
            PRECISION=0.050000000000000003,
            CHAM_GD=T_RES,
            VALE_CALC=5.653848637,
            VALE_REFE=5.5599999999999996,
            REFERENCE="NON_DEFINI",
        ),
        _F(
            GROUP_NO="N7",
            NOM_CMP="TEMP",
            PRECISION=0.050000000000000003,
            CHAM_GD=T_RES,
            VALE_CALC=2.798423046,
            VALE_REFE=2.7799999999999998,
            REFERENCE="NON_DEFINI",
        ),
        _F(
            GROUP_NO="N2",
            NOM_CMP="TEMP",
            PRECISION=0.14000000000000001,
            CHAM_GD=T_RES,
            VALE_CALC=-1.899409180,
            VALE_REFE=-1.6699999999999999,
            REFERENCE="NON_DEFINI",
        ),
        _F(
            GROUP_NO="N5",
            NOM_CMP="TEMP",
            PRECISION=0.050000000000000003,
            CHAM_GD=T_RES,
            VALE_CALC=-8.614228469,
            VALE_REFE=-8.8900000000000006,
            REFERENCE="NON_DEFINI",
        ),
        _F(
            GROUP_NO="N10",
            NOM_CMP="TEMP",
            PRECISION=0.050000000000000003,
            CHAM_GD=T_RES,
            VALE_CALC=-17.780000000,
            VALE_REFE=-17.780000000000001,
            REFERENCE="NON_DEFINI",
        ),
        _F(
            GROUP_NO="N124",
            NOM_CMP="TEMP",
            PRECISION=0.050000000000000003,
            CHAM_GD=T_RES,
            VALE_CALC=-17.780000000,
            VALE_REFE=-17.780000000000001,
            REFERENCE="NON_DEFINI",
        ),
        _F(
            GROUP_NO="N134",
            NOM_CMP="TEMP",
            PRECISION=0.050000000000000003,
            CHAM_GD=T_RES,
            VALE_CALC=-4.840211043,
            VALE_REFE=-5.0,
            REFERENCE="NON_DEFINI",
        ),
        _F(
            GROUP_NO="N160",
            NOM_CMP="TEMP",
            PRECISION=0.050000000000000003,
            CHAM_GD=T_RES,
            VALE_CALC=2.142401385,
            VALE_REFE=2.2200000000000002,
            REFERENCE="NON_DEFINI",
        ),
        _F(
            GROUP_NO="N184",
            NOM_CMP="TEMP",
            PRECISION=0.050000000000000003,
            CHAM_GD=T_RES,
            VALE_CALC=5.645458341,
            VALE_REFE=5.5599999999999996,
            REFERENCE="NON_DEFINI",
        ),
        _F(
            GROUP_NO="N214",
            NOM_CMP="TEMP",
            PRECISION=0.050000000000000003,
            CHAM_GD=T_RES,
            VALE_CALC=6.663971346,
            VALE_REFE=6.6699999999999999,
            REFERENCE="NON_DEFINI",
        ),
        _F(
            GROUP_NO="N245",
            NOM_CMP="TEMP",
            PRECISION=0.050000000000000003,
            CHAM_GD=T_RES,
            VALE_CALC=5.653849761,
            VALE_REFE=5.5599999999999996,
            REFERENCE="NON_DEFINI",
        ),
        _F(
            GROUP_NO="N268",
            NOM_CMP="TEMP",
            PRECISION=0.050000000000000003,
            CHAM_GD=T_RES,
            VALE_CALC=2.798428166,
            VALE_REFE=2.7799999999999998,
            REFERENCE="NON_DEFINI",
        ),
        _F(
            GROUP_NO="N285",
            NOM_CMP="TEMP",
            PRECISION=0.14000000000000001,
            CHAM_GD=T_RES,
            VALE_CALC=-1.899403201,
            VALE_REFE=-1.6699999999999999,
            REFERENCE="NON_DEFINI",
        ),
        _F(
            GROUP_NO="N294",
            NOM_CMP="TEMP",
            PRECISION=0.050000000000000003,
            CHAM_GD=T_RES,
            VALE_CALC=-8.614220653,
            VALE_REFE=-8.8900000000000006,
            REFERENCE="NON_DEFINI",
        ),
        _F(
            GROUP_NO="N300",
            NOM_CMP="TEMP",
            PRECISION=0.050000000000000003,
            CHAM_GD=T_RES,
            VALE_CALC=-17.780000000,
            VALE_REFE=-17.780000000000001,
            REFERENCE="NON_DEFINI",
        ),
        _F(
            GROUP_NO="N96",
            NOM_CMP="TEMP",
            PRECISION=0.050000000000000003,
            CHAM_GD=T_RES,
            VALE_CALC=-17.780000000,
            VALE_REFE=-17.780000000000001,
            REFERENCE="NON_DEFINI",
        ),
        _F(
            GROUP_NO="N79",
            NOM_CMP="TEMP",
            PRECISION=0.050000000000000003,
            CHAM_GD=T_RES,
            VALE_CALC=-4.826381875,
            VALE_REFE=-5.0,
            REFERENCE="NON_DEFINI",
        ),
        _F(
            GROUP_NO="N103",
            NOM_CMP="TEMP",
            PRECISION=0.050000000000000003,
            CHAM_GD=T_RES,
            VALE_CALC=-4.842971503,
            VALE_REFE=-5.0,
            REFERENCE="NON_DEFINI",
        ),
        _F(
            GROUP_NO="N120",
            NOM_CMP="TEMP",
            PRECISION=0.050000000000000003,
            CHAM_GD=T_RES,
            VALE_CALC=-4.830585676,
            VALE_REFE=-5.0,
            REFERENCE="NON_DEFINI",
        ),
        _F(
            GROUP_NO="N53",
            NOM_CMP="TEMP",
            PRECISION=0.050000000000000003,
            CHAM_GD=T_RES,
            VALE_CALC=2.146449536,
            VALE_REFE=2.2200000000000002,
            REFERENCE="NON_DEFINI",
        ),
        _F(
            GROUP_NO="N117",
            NOM_CMP="TEMP",
            PRECISION=0.050000000000000003,
            CHAM_GD=T_RES,
            VALE_CALC=2.145308638,
            VALE_REFE=2.2200000000000002,
            REFERENCE="NON_DEFINI",
        ),
        _F(
            GROUP_NO="N135",
            NOM_CMP="TEMP",
            PRECISION=0.050000000000000003,
            CHAM_GD=T_RES,
            VALE_CALC=2.145072715,
            VALE_REFE=2.2200000000000002,
            REFERENCE="NON_DEFINI",
        ),
        _F(
            GROUP_NO="N81",
            NOM_CMP="TEMP",
            PRECISION=0.050000000000000003,
            CHAM_GD=T_RES,
            VALE_CALC=5.646289913,
            VALE_REFE=5.5599999999999996,
            REFERENCE="NON_DEFINI",
        ),
        _F(
            GROUP_NO="N149",
            NOM_CMP="TEMP",
            PRECISION=0.050000000000000003,
            CHAM_GD=T_RES,
            VALE_CALC=5.646236364,
            VALE_REFE=5.5599999999999996,
            REFERENCE="NON_DEFINI",
        ),
        _F(
            GROUP_NO="N121",
            NOM_CMP="TEMP",
            PRECISION=0.050000000000000003,
            CHAM_GD=T_RES,
            VALE_CALC=6.664314343,
            VALE_REFE=6.6699999999999999,
            REFERENCE="NON_DEFINI",
        ),
        _F(
            GROUP_NO="N164",
            NOM_CMP="TEMP",
            PRECISION=0.050000000000000003,
            CHAM_GD=T_RES,
            VALE_CALC=6.664314287,
            VALE_REFE=6.6699999999999999,
            REFERENCE="NON_DEFINI",
        ),
        _F(
            GROUP_NO="N180",
            NOM_CMP="TEMP",
            PRECISION=0.050000000000000003,
            CHAM_GD=T_RES,
            VALE_CALC=6.664428093,
            VALE_REFE=6.6699999999999999,
            REFERENCE="NON_DEFINI",
        ),
        _F(
            GROUP_NO="N54",
            NOM_CMP="TEMP",
            PRECISION=0.050000000000000003,
            CHAM_GD=T_RES,
            VALE_CALC=5.653867872,
            VALE_REFE=5.5599999999999996,
            REFERENCE="NON_DEFINI",
        ),
        _F(
            GROUP_NO="N97",
            NOM_CMP="TEMP",
            PRECISION=0.050000000000000003,
            CHAM_GD=T_RES,
            VALE_CALC=5.653857141,
            VALE_REFE=5.5599999999999996,
            REFERENCE="NON_DEFINI",
        ),
        _F(
            GROUP_NO="N168",
            NOM_CMP="TEMP",
            PRECISION=0.050000000000000003,
            CHAM_GD=T_RES,
            VALE_CALC=5.653827275,
            VALE_REFE=5.5599999999999996,
            REFERENCE="NON_DEFINI",
        ),
        _F(
            GROUP_NO="N228",
            NOM_CMP="TEMP",
            PRECISION=0.050000000000000003,
            CHAM_GD=T_RES,
            VALE_CALC=5.653868888,
            VALE_REFE=5.5599999999999996,
            REFERENCE="NON_DEFINI",
        ),
        _F(
            GROUP_NO="N71",
            NOM_CMP="TEMP",
            PRECISION=0.050000000000000003,
            CHAM_GD=T_RES,
            VALE_CALC=2.798481432,
            VALE_REFE=2.7799999999999998,
            REFERENCE="NON_DEFINI",
        ),
        _F(
            GROUP_NO="N181",
            NOM_CMP="TEMP",
            PRECISION=0.050000000000000003,
            CHAM_GD=T_RES,
            VALE_CALC=2.798071855,
            VALE_REFE=2.7799999999999998,
            REFERENCE="NON_DEFINI",
        ),
        _F(
            GROUP_NO="N247",
            NOM_CMP="TEMP",
            PRECISION=0.050000000000000003,
            CHAM_GD=T_RES,
            VALE_CALC=2.798483370,
            VALE_REFE=2.7799999999999998,
            REFERENCE="NON_DEFINI",
        ),
        _F(
            GROUP_NO="N211",
            NOM_CMP="TEMP",
            PRECISION=0.14000000000000001,
            CHAM_GD=T_RES,
            VALE_CALC=-1.900024387,
            VALE_REFE=-1.6699999999999999,
            REFERENCE="NON_DEFINI",
        ),
        _F(
            GROUP_NO="N204",
            NOM_CMP="TEMP",
            PRECISION=0.050000000000000003,
            CHAM_GD=T_RES,
            VALE_CALC=-8.615492486,
            VALE_REFE=-8.8900000000000006,
            REFERENCE="NON_DEFINI",
        ),
        _F(
            GROUP_NO="N230",
            NOM_CMP="TEMP",
            PRECISION=0.050000000000000003,
            CHAM_GD=T_RES,
            VALE_CALC=-17.780000000,
            VALE_REFE=-17.780000000000001,
            REFERENCE="NON_DEFINI",
        ),
    )
)

FIN()
#
#
