# coding=utf-8
# --------------------------------------------------------------------
# Copyright (C) 1991 - 2025 - EDF R&D - www.code-aster.org
# This file is part of code_aster.
#
# code_aster is free software: you can redistribute it and/or modify
# it under the terms of the GNU General Public License as published by
# the Free Software Foundation, either version 3 of the License, or
# (at your option) any later version.
#
# code_aster is distributed in the hope that it will be useful,
# but WITHOUT ANY WARRANTY; without even the implied warranty of
# MERCHANTABILITY or FITNESS FOR A PARTICULAR PURPOSE.  See the
# GNU General Public License for more details.
#
# You should have received a copy of the GNU General Public License
# along with code_aster.  If not, see <http://www.gnu.org/licenses/>.
# --------------------------------------------------------------------

# MODELISATION TRIA6, QUAD9


DEBUT(CODE="OUI", ERREUR=_F(ALARME="EXCEPTION"), DEBUG=_F(SDVERI="OUI"))

MAILQ8 = LIRE_MAILLAGE(FORMAT="MED")

MAILQ8 = DEFI_GROUP(reuse=MAILQ8, MAILLAGE=MAILQ8, CREA_GROUP_NO=_F(TOUT_GROUP_MA="OUI"))

MA = CREA_MAILLAGE(MAILLAGE=MAILQ8, QUAD_LINE=_F(TOUT="OUI"))

MOTHER = AFFE_MODELE(
    MAILLAGE=MA, AFFE=_F(TOUT="OUI", PHENOMENE="THERMIQUE", MODELISATION="PLAN_DIAG")
)

INOX = DEFI_MATERIAU(
    THER=_F(
        LAMBDA=1.0,
        #                                             W/M.DEGC
        RHO_CP=1000.0,
    )
    #                                             J/M3.DEGC
)

CHMAT = AFFE_MATERIAU(MAILLAGE=MA, AFFE=_F(TOUT="OUI", MATER=INOX))

PAROI = DEFI_CONSTANTE(VALE=100.0)

#                                             W/M2.DEGC


T_EXT = DEFI_FONCTION(
    NOM_PARA="INST",
    VALE=(0.0e0, 100.0, 1.0e-2, 0.0, 10.0e0, 0.0),
    PROL_GAUCHE="CONSTANT",
    PROL_DROITE="CONSTANT",
)

CHAR_TH = AFFE_CHAR_THER_F(
    MODELE=MOTHER, ECHANGE=_F(GROUP_MA="ECHANGE", COEF_H=PAROI, TEMP_EXT=T_EXT)
)

LISTTH = DEFI_LIST_REEL(
    DEBUT=0.0,
    INTERVALLE=(
        _F(JUSQU_A=1.0e-2, NOMBRE=10),
        _F(JUSQU_A=1.0e-1, NOMBRE=9),
        _F(JUSQU_A=1.0, NOMBRE=9),
        _F(JUSQU_A=2.0, NOMBRE=5),
        _F(JUSQU_A=10.0, NOMBRE=8),
    ),
)

LIST = DEFI_LIST_REEL(VALE=(0.1, 0.5, 2.0, 10.0))

TEMPE = THER_LINEAIRE(
    MODELE=MOTHER,
    CHAM_MATER=CHMAT,
    EXCIT=_F(CHARGE=CHAR_TH),
    ETAT_INIT=_F(VALE=100.0),
    INCREMENT=_F(LIST_INST=LISTTH),
    ARCHIVAGE=_F(LIST_INST=LIST),
)

TEMP_1 = CREA_CHAMP(
    OPERATION="EXTR", TYPE_CHAM="NOEU_TEMP_R", NOM_CHAM="TEMP", RESULTAT=TEMPE, INST=0.1
)

TEMP_2 = CREA_CHAMP(
    OPERATION="EXTR", TYPE_CHAM="NOEU_TEMP_R", NOM_CHAM="TEMP", RESULTAT=TEMPE, INST=0.5
)

TEMP_3 = CREA_CHAMP(
    OPERATION="EXTR", TYPE_CHAM="NOEU_TEMP_R", NOM_CHAM="TEMP", RESULTAT=TEMPE, INST=2.0
)

TEMP_4 = CREA_CHAMP(
    OPERATION="EXTR", TYPE_CHAM="NOEU_TEMP_R", NOM_CHAM="TEMP", RESULTAT=TEMPE, INST=10.0
)

TEST_RESU(
    CHAM_NO=(
        _F(
            GROUP_NO="N18",
            NOM_CMP="TEMP",
            PRECISION=1.0e-2,
            CHAM_GD=TEMP_1,
            VALE_CALC=99.99822130189783,
            VALE_REFE=100.0,
            REFERENCE="NON_DEFINI",
        ),
        _F(
            GROUP_NO="N18",
            NOM_CMP="TEMP",
            PRECISION=1.0e-2,
            CHAM_GD=TEMP_2,
            VALE_CALC=99.04213462894226,
            VALE_REFE=99.408000000000001,
            REFERENCE="NON_DEFINI",
        ),
        _F(
            GROUP_NO="N18",
            NOM_CMP="TEMP",
            PRECISION=1.0e-2,
            CHAM_GD=TEMP_3,
            VALE_CALC=79.79396094053341,
            VALE_REFE=79.858999999999995,
            REFERENCE="NON_DEFINI",
        ),
        _F(
            GROUP_NO="N18",
            NOM_CMP="TEMP",
            PRECISION=0.029999999999999999,
            CHAM_GD=TEMP_4,
            VALE_CALC=16.13752982910742,
            VALE_REFE=15.717000000000001,
            REFERENCE="NON_DEFINI",
        ),
        _F(
            GROUP_NO="N49",
            NOM_CMP="TEMP",
            PRECISION=1.0e-2,
            CHAM_GD=TEMP_1,
            VALE_CALC=93.38033726179506,
            VALE_REFE=93.665999999999997,
            REFERENCE="NON_DEFINI",
        ),
        _F(
            GROUP_NO="N49",
            NOM_CMP="TEMP",
            PRECISION=1.0e-2,
            CHAM_GD=TEMP_2,
            VALE_CALC=63.81312115275874,
            VALE_REFE=63.5,
            REFERENCE="NON_DEFINI",
        ),
        _F(
            GROUP_NO="N49",
            NOM_CMP="TEMP",
            PRECISION=1.0e-2,
            CHAM_GD=TEMP_3,
            VALE_CALC=35.66703681121848,
            VALE_REFE=35.716999999999999,
            REFERENCE="NON_DEFINI",
        ),
        _F(
            GROUP_NO="N49",
            NOM_CMP="TEMP",
            PRECISION=0.029999999999999999,
            CHAM_GD=TEMP_4,
            VALE_CALC=6.932571860841575,
            VALE_REFE=6.7948000000000004,
            REFERENCE="NON_DEFINI",
        ),
        _F(
            GROUP_NO="N12",
            NOM_CMP="TEMP",
            PRECISION=1.0e-2,
            CHAM_GD=TEMP_1,
            VALE_CALC=99.9983811514314,
            VALE_REFE=100.0,
            REFERENCE="NON_DEFINI",
        ),
        _F(
            GROUP_NO="N12",
            NOM_CMP="TEMP",
            PRECISION=1.0e-2,
            CHAM_GD=TEMP_2,
            VALE_CALC=99.07718490624319,
            VALE_REFE=99.408000000000001,
            REFERENCE="NON_DEFINI",
        ),
        _F(
            GROUP_NO="N12",
            NOM_CMP="TEMP",
            PRECISION=1.0e-2,
            CHAM_GD=TEMP_3,
            VALE_CALC=80.00234933779954,
            VALE_REFE=79.858999999999995,
            REFERENCE="NON_DEFINI",
        ),
        _F(
            GROUP_NO="N12",
            NOM_CMP="TEMP",
            PRECISION=0.040000000000000001,
            CHAM_GD=TEMP_4,
            VALE_CALC=16.210935502787397,
            VALE_REFE=15.717000000000001,
            REFERENCE="NON_DEFINI",
        ),
        _F(
            GROUP_NO="N30",
            NOM_CMP="TEMP",
            PRECISION=1.0e-2,
            CHAM_GD=TEMP_1,
            VALE_CALC=92.8951879936254,
            VALE_REFE=93.665999999999997,
            REFERENCE="NON_DEFINI",
        ),
        _F(
            GROUP_NO="N30",
            NOM_CMP="TEMP",
            PRECISION=0.029999999999999999,
            CHAM_GD=TEMP_2,
            VALE_CALC=61.8815435209939,
            VALE_REFE=63.5,
            REFERENCE="NON_DEFINI",
        ),
        _F(
            GROUP_NO="N30",
            NOM_CMP="TEMP",
            PRECISION=0.02,
            CHAM_GD=TEMP_3,
            VALE_CALC=35.33112975102693,
            VALE_REFE=35.716999999999999,
            REFERENCE="NON_DEFINI",
        ),
        _F(
            GROUP_NO="N30",
            NOM_CMP="TEMP",
            PRECISION=0.02,
            CHAM_GD=TEMP_4,
            VALE_CALC=6.888519439994357,
            VALE_REFE=6.7948000000000004,
            REFERENCE="NON_DEFINI",
        ),
    )
)

FIN()
#
