# coding=utf-8
# --------------------------------------------------------------------
# Copyright (C) 1991 - 2025 - EDF R&D - www.code-aster.org
# This file is part of code_aster.
#
# code_aster is free software: you can redistribute it and/or modify
# it under the terms of the GNU General Public License as published by
# the Free Software Foundation, either version 3 of the License, or
# (at your option) any later version.
#
# code_aster is distributed in the hope that it will be useful,
# but WITHOUT ANY WARRANTY; without even the implied warranty of
# MERCHANTABILITY or FITNESS FOR A PARTICULAR PURPOSE.  See the
# GNU General Public License for more details.
#
# You should have received a copy of the GNU General Public License
# along with code_aster.  If not, see <http://www.gnu.org/licenses/>.
# --------------------------------------------------------------------

#       GEOMETRIQUE
#


DEBUT(CODE="OUI", ERREUR=_F(ALARME="EXCEPTION"))

#
# LECTURE DU MAILLAGE ----------------------------------------------
#

MAIL = LIRE_MAILLAGE(FORMAT="MED")

#
# DEFINITION DES CHARGEMENTS ET DU MATERIAU ------------------------
#

TIMP_0 = DEFI_CONSTANTE(VALE=0.0)

TIMP1000 = DEFI_CONSTANTE(VALE=1000.0)

MATE = DEFI_MATERIAU(THER=_F(LAMBDA=1.0e0, RHO_CP=1.00e0))

#
# AFFECTATIONS: MATERIAU, MODELE, CHARGEMENT ----------------------
#

CHMAT = AFFE_MATERIAU(MAILLAGE=MAIL, AFFE=_F(TOUT="OUI", MATER=MATE))

MOTH = AFFE_MODELE(MAILLAGE=MAIL, AFFE=_F(TOUT="OUI", MODELISATION="PLAN", PHENOMENE="THERMIQUE"))

CHTH = AFFE_CHAR_THER_F(
    MODELE=MOTH,
    TEMP_IMPO=(_F(GROUP_NO="T_1000", TEMP=TIMP1000), _F(GROUP_NO="T_0000", TEMP=TIMP_0)),
)

CHNO = CREA_CHAMP(
    OPERATION="AFFE",
    TYPE_CHAM="NOEU_TEMP_R",
    MAILLAGE=MAIL,
    AFFE=(
        _F(GROUP_NO="N1", NOM_CMP="TEMP", VALE=0.10000e01),
        _F(GROUP_NO="N2", NOM_CMP="TEMP", VALE=0.10000e01),
        _F(GROUP_NO="N3", NOM_CMP="TEMP", VALE=0.10000e01),
        _F(GROUP_NO="N4", NOM_CMP="TEMP", VALE=0.10000e01),
        _F(GROUP_NO="N5", NOM_CMP="TEMP", VALE=0.10000e01),
        _F(GROUP_NO="N6", NOM_CMP="TEMP", VALE=0.10000e01),
        _F(GROUP_NO="N7", NOM_CMP="TEMP", VALE=0.11385e00),
        _F(GROUP_NO="N8", NOM_CMP="TEMP", VALE=0.11385e00),
        _F(GROUP_NO="N9", NOM_CMP="TEMP", VALE=0.11385e00),
        _F(GROUP_NO="N10", NOM_CMP="TEMP", VALE=0.11385e00),
        _F(GROUP_NO="N11", NOM_CMP="TEMP", VALE=0.11385e00),
        _F(GROUP_NO="N12", NOM_CMP="TEMP", VALE=0.11385e00),
        _F(GROUP_NO="N13", NOM_CMP="TEMP", VALE=0.15654e-02),
        _F(GROUP_NO="N14", NOM_CMP="TEMP", VALE=0.15654e-02),
        _F(GROUP_NO="N15", NOM_CMP="TEMP", VALE=0.15654e-02),
        _F(GROUP_NO="N16", NOM_CMP="TEMP", VALE=0.15654e-02),
        _F(GROUP_NO="N17", NOM_CMP="TEMP", VALE=0.15654e-02),
        _F(GROUP_NO="N18", NOM_CMP="TEMP", VALE=0.15654e-02),
        _F(GROUP_NO="N19", NOM_CMP="TEMP", VALE=0.21014e-05),
        _F(GROUP_NO="N20", NOM_CMP="TEMP", VALE=0.21014e-05),
# ... 62 like lines cut
    ),
)

#
# DEFINITION DE LA STATEGIE DE CALCUL -----------------------------
#

LR8 = DEFI_LIST_REEL(
    DEBUT=0.0,
    INTERVALLE=(
        _F(JUSQU_A=1.0e-4, NOMBRE=10),
        _F(JUSQU_A=1.0e-3, NOMBRE=9),
        _F(JUSQU_A=1.0e-2, NOMBRE=9),
        _F(JUSQU_A=1.0e-1, NOMBRE=9),
    ),
)

#
# RESOLUTION ------------------------------------------------------
#

TEMPE = THER_LINEAIRE(
    MODELE=MOTH,
    ETAT_INIT=_F(CHAM_NO=CHNO),
    INCREMENT=_F(LIST_INST=LR8),
    CHAM_MATER=CHMAT,
    EXCIT=_F(CHARGE=CHTH),
)

#
# ANALYSE DES RESULTATS -------------------------------------------
#

TEMP_01 = CREA_CHAMP(
    OPERATION="EXTR", TYPE_CHAM="NOEU_TEMP_R", RESULTAT=TEMPE, NOM_CHAM="TEMP", INST=0.1
)

TEST_RESU(
    CHAM_NO=(
        _F(
            GROUP_NO="N37",
            NOM_CMP="TEMP",
            PRECISION=0.02,
            CHAM_GD=TEMP_01,
            VALE_CALC=785.351058575,
            VALE_REFE=787.0,
            REFERENCE="NON_DEFINI",
        ),
        _F(
            GROUP_NO="N39",
            NOM_CMP="TEMP",
            PRECISION=0.02,
            CHAM_GD=TEMP_01,
            VALE_CALC=631.735442177,
            VALE_REFE=634.0,
            REFERENCE="NON_DEFINI",
        ),
        _F(
            GROUP_NO="N61",
            NOM_CMP="TEMP",
            PRECISION=0.02,
            CHAM_GD=TEMP_01,
            VALE_CALC=85.401114197,
            VALE_REFE=86.0,
            REFERENCE="NON_DEFINI",
        ),
        _F(
            GROUP_NO="N59",
            NOM_CMP="TEMP",
            PRECISION=0.02,
            CHAM_GD=TEMP_01,
            VALE_CALC=27.795615795,
            VALE_REFE=28.0,
            REFERENCE="NON_DEFINI",
        ),
        _F(
            GROUP_NO="N64",
            NOM_CMP="TEMP",
            PRECISION=0.02,
            CHAM_GD=TEMP_01,
            VALE_CALC=118.838584320,
            VALE_REFE=119.0,
            REFERENCE="NON_DEFINI",
        ),
        _F(
            GROUP_NO="N42",
            NOM_CMP="TEMP",
            PRECISION=0.02,
            CHAM_GD=TEMP_01,
            VALE_CALC=536.967230382,
            VALE_REFE=538.0,
            REFERENCE="NON_DEFINI",
        ),
    )
)

FIN()
#
#
#
#
#
#
#
#
#
#
