# coding=utf-8
# --------------------------------------------------------------------
# Copyright (C) 1991 - 2025 - EDF R&D - www.code-aster.org
# This file is part of code_aster.
#
# code_aster is free software: you can redistribute it and/or modify
# it under the terms of the GNU General Public License as published by
# the Free Software Foundation, either version 3 of the License, or
# (at your option) any later version.
#
# code_aster is distributed in the hope that it will be useful,
# but WITHOUT ANY WARRANTY; without even the implied warranty of
# MERCHANTABILITY or FITNESS FOR A PARTICULAR PURPOSE.  See the
# GNU General Public License for more details.
#
# You should have received a copy of the GNU General Public License
# along with code_aster.  If not, see <http://www.gnu.org/licenses/>.
# --------------------------------------------------------------------

# MODELISATION TRIA6, QUAD9


DEBUT(CODE="OUI", ERREUR=_F(ALARME="EXCEPTION"), DEBUG=_F(SDVERI="OUI"))

MAILQ8 = LIRE_MAILLAGE(FORMAT="MED")

MAILQ8 = DEFI_GROUP(reuse=MAILQ8, MAILLAGE=MAILQ8, CREA_GROUP_NO=_F(TOUT_GROUP_MA="OUI"))

MA = CREA_MAILLAGE(MAILLAGE=MAILQ8, QUAD_LINE=_F(TOUT="OUI"))

MOTHER = AFFE_MODELE(
    MAILLAGE=MA, AFFE=_F(TOUT="OUI", PHENOMENE="THERMIQUE", MODELISATION="AXIS_DIAG")
)

INOX = DEFI_MATERIAU(
    THER=_F(
        LAMBDA=19.97e-3,
        #                                             W/MM.DEGC
        RHO_CP=4.89488e-3,
    ),
    #                                             J/MM3.DEGC
    ELAS=_F(E=174700.0, NU=0.3, ALPHA=17.83e-6),
)

CHMAT = AFFE_MATERIAU(MAILLAGE=MA, AFFE=_F(TOUT="OUI", MATER=INOX))

PAROI = DEFI_CONSTANTE(VALE=40000.0e-6)

#                                             W/MM.MM.DEGC


TP_FLUID = DEFI_FONCTION(
    NOM_PARA="INST", VALE=(0.0, 289.0, 12.0, 20.0), PROL_GAUCHE="CONSTANT", PROL_DROITE="CONSTANT"
)

CHAR_TH = AFFE_CHAR_THER_F(
    MODELE=MOTHER, ECHANGE=_F(GROUP_MA="ECHANGE", COEF_H=PAROI, TEMP_EXT=TP_FLUID)
)

LISTTH = DEFI_LIST_REEL(
    DEBUT=0.0,
    INTERVALLE=(
        _F(JUSQU_A=12.0, NOMBRE=12),
        _F(JUSQU_A=20.0, NOMBRE=2),
        _F(JUSQU_A=100.0, NOMBRE=4),
        _F(JUSQU_A=200.0, NOMBRE=2),
        _F(JUSQU_A=400.0, NOMBRE=2),
        _F(JUSQU_A=2000.0, NOMBRE=8),
    ),
)

LIST = DEFI_LIST_REEL(VALE=(12.0, 100.0, 600.0, 2000.0))

TEMPE = THER_LINEAIRE(
    MODELE=MOTHER,
    CHAM_MATER=CHMAT,
    EXCIT=_F(CHARGE=CHAR_TH),
    ETAT_INIT=_F(VALE=289.0),
    INCREMENT=_F(LIST_INST=LISTTH),
    ARCHIVAGE=_F(LIST_INST=LIST),
)

TEMP_1 = CREA_CHAMP(
    OPERATION="EXTR", TYPE_CHAM="NOEU_TEMP_R", NOM_CHAM="TEMP", RESULTAT=TEMPE, INST=12.0
)

TEMP_2 = CREA_CHAMP(
    OPERATION="EXTR", TYPE_CHAM="NOEU_TEMP_R", NOM_CHAM="TEMP", RESULTAT=TEMPE, INST=100.0
)

TEMP_3 = CREA_CHAMP(
    OPERATION="EXTR", TYPE_CHAM="NOEU_TEMP_R", NOM_CHAM="TEMP", RESULTAT=TEMPE, INST=600.0
)

TEMP_4 = CREA_CHAMP(
    OPERATION="EXTR", TYPE_CHAM="NOEU_TEMP_R", NOM_CHAM="TEMP", RESULTAT=TEMPE, INST=2000.0
)

TEST_RESU(
    CHAM_NO=(
        _F(
            GROUP_NO="N25",
            NOM_CMP="TEMP",
            PRECISION=3.0e-2,
            CHAM_GD=TEMP_1,
            VALE_CALC=282.63154002432225,
            VALE_REFE=288.63999999999999,
            REFERENCE="NON_DEFINI",
        ),
        _F(
            GROUP_NO="N25",
            NOM_CMP="TEMP",
            PRECISION=2.0e-2,
            CHAM_GD=TEMP_2,
            VALE_CALC=199.84298658175828,
            VALE_REFE=202.75999999999999,
            REFERENCE="NON_DEFINI",
        ),
        _F(
            GROUP_NO="N25",
            NOM_CMP="TEMP",
            PRECISION=1.0e-2,
            CHAM_GD=TEMP_3,
            VALE_CALC=92.8214833843037,
            VALE_REFE=93.027000000000001,
            REFERENCE="NON_DEFINI",
        ),
        _F(
            GROUP_NO="N25",
            NOM_CMP="TEMP",
            PRECISION=2.0e-2,
            CHAM_GD=TEMP_4,
            VALE_CALC=29.86473867104942,
            VALE_REFE=29.419,
            REFERENCE="NON_DEFINI",
        ),
        _F(
            GROUP_NO="N28",
            NOM_CMP="TEMP",
            PRECISION=1.0e-2,
            CHAM_GD=TEMP_1,
            VALE_CALC=288.8424514142582,
            VALE_REFE=289.0,
            REFERENCE="NON_DEFINI",
        ),
        _F(
            GROUP_NO="N28",
            NOM_CMP="TEMP",
            PRECISION=3.0e-2,
            CHAM_GD=TEMP_2,
            VALE_CALC=268.6349009717709,
            VALE_REFE=275.04000000000002,
            REFERENCE="NON_DEFINI",
        ),
        _F(
            GROUP_NO="N28",
            NOM_CMP="TEMP",
            PRECISION=1.0e-2,
            CHAM_GD=TEMP_3,
            VALE_CALC=142.7438943046533,
            VALE_REFE=143.0,
            REFERENCE="NON_DEFINI",
        ),
        _F(
            GROUP_NO="N28",
            NOM_CMP="TEMP",
            PRECISION=3.0e-2,
            CHAM_GD=TEMP_4,
            VALE_CALC=36.62921092636705,
            VALE_REFE=35.857999999999997,
            REFERENCE="NON_DEFINI",
        ),
        _F(
            GROUP_NO="N9",
            NOM_CMP="TEMP",
            PRECISION=2.0e-2,
            CHAM_GD=TEMP_1,
            VALE_CALC=283.0876952128826,
            VALE_REFE=288.63999999999999,
            REFERENCE="NON_DEFINI",
        ),
        _F(
            GROUP_NO="N9",
            NOM_CMP="TEMP",
            PRECISION=0.02,
            CHAM_GD=TEMP_2,
            VALE_CALC=206.66158083672974,
            VALE_REFE=202.75999999999999,
            REFERENCE="NON_DEFINI",
        ),
        _F(
            GROUP_NO="N9",
            NOM_CMP="TEMP",
            PRECISION=1.0e-2,
            CHAM_GD=TEMP_3,
            VALE_CALC=93.73124641442604,
            VALE_REFE=93.027000000000001,
            REFERENCE="NON_DEFINI",
        ),
        _F(
            GROUP_NO="N9",
            NOM_CMP="TEMP",
            PRECISION=2.0e-2,
            CHAM_GD=TEMP_4,
            VALE_CALC=29.98787336897127,
            VALE_REFE=29.419,
            REFERENCE="NON_DEFINI",
        ),
        _F(
            GROUP_NO="N16",
            NOM_CMP="TEMP",
            PRECISION=1.0e-2,
            CHAM_GD=TEMP_1,
            VALE_CALC=288.81766365044336,
            VALE_REFE=289.0,
            REFERENCE="NON_DEFINI",
        ),
        _F(
            GROUP_NO="N16",
            NOM_CMP="TEMP",
            PRECISION=3.0e-2,
            CHAM_GD=TEMP_2,
            VALE_CALC=267.6577987283546,
            VALE_REFE=275.04000000000002,
            REFERENCE="NON_DEFINI",
        ),
        _F(
            GROUP_NO="N16",
            NOM_CMP="TEMP",
            PRECISION=2.0e-2,
            CHAM_GD=TEMP_3,
            VALE_CALC=141.56772847639516,
            VALE_REFE=143.0,
            REFERENCE="NON_DEFINI",
        ),
        _F(
            GROUP_NO="N16",
            NOM_CMP="TEMP",
            PRECISION=2.0e-2,
            CHAM_GD=TEMP_4,
            VALE_CALC=36.46996769678414,
            VALE_REFE=35.857999999999997,
            REFERENCE="NON_DEFINI",
        ),
    )
)

FIN()
#
