# coding=utf-8
# --------------------------------------------------------------------
# Copyright (C) 1991 - 2025 - EDF R&D - www.code-aster.org
# This file is part of code_aster.
#
# code_aster is free software: you can redistribute it and/or modify
# it under the terms of the GNU General Public License as published by
# the Free Software Foundation, either version 3 of the License, or
# (at your option) any later version.
#
# code_aster is distributed in the hope that it will be useful,
# but WITHOUT ANY WARRANTY; without even the implied warranty of
# MERCHANTABILITY or FITNESS FOR A PARTICULAR PURPOSE.  See the
# GNU General Public License for more details.
#
# You should have received a copy of the GNU General Public License
# along with code_aster.  If not, see <http://www.gnu.org/licenses/>.
# --------------------------------------------------------------------

DEBUT(CODE="OUI", ERREUR=_F(ALARME="EXCEPTION"), DEBUG=_F(SDVERI="OUI"))
###############################################################################################


#                                         CALCUL THERMIQUE                                    #
###############################################################################################


MAILTH = LIRE_MAILLAGE(FORMAT="MED")

MODTHER = AFFE_MODELE(
    MAILLAGE=MAILTH, AFFE=_F(TOUT="OUI", PHENOMENE="THERMIQUE", MODELISATION="AXIS")
)

MODTHERD = AFFE_MODELE(
    MAILLAGE=MAILTH, AFFE=_F(TOUT="OUI", PHENOMENE="THERMIQUE", MODELISATION="AXIS_DIAG")
)

# DEFINITION DE L'AFFINITE FONCTION DU DEGRE D'HYDRATATION
Ar = 4000

TZ0 = 273.15


AA0 = DEFI_FONCTION(
    NOM_PARA="HYDR",
    VALE=(
        0.0,
        6510.0,
        0.008,
        6360.0,
        0.016,
        2485.0,
        0.019,
        2460.0,
        0.022,
        2440.0,
        0.0258,
        6050.0,
        0.038,
        9520.0,
        0.047,
        21800.0,
        0.08,
        37600.0,
        0.138,
        51600.0,
# ... 52 like lines cut
    ),
    PROL_DROITE="CONSTANT",
    PROL_GAUCHE="EXCLU",
)

AA = FORMULE(
    VALE="exp(-Ar/(TZ0+TEMP))*(AA0(HYDR))", Ar=Ar, TZ0=TZ0, AA0=AA0, NOM_PARA=["HYDR", "TEMP"]
)

LL = DEFI_LIST_REEL(
    VALE=(
        0.0,
        0.008,
        0.016,
        0.019,
        0.022,
        0.0258,
        0.038,
        0.047,
        0.08,
        0.138,
        0.232,
        0.351,
        0.44,
        0.50,
        0.55,
        0.594,
        0.63,
        0.66,
        0.697,
        0.73,
# ... 16 like lines cut
    )
)

LT = DEFI_LIST_REEL(DEBUT=0.0, INTERVALLE=_F(JUSQU_A=100.0, PAS=0.1))

AFF = CALC_FONC_INTERP(
    FONCTION=AA,
    LIST_PARA=LL,
    NOM_RESU="AFF",
    NOM_PARA="HYDR",
    PROL_DROITE="CONSTANT",
    PROL_GAUCHE="EXCLU",
    NOM_PARA_FONC="TEMP",
    LIST_PARA_FONC=LT,
    PROL_DROITE_FONC="LINEAIRE",
    PROL_GAUCHE_FONC="LINEAIRE",
)

#
# CONDUCTION

COND = DEFI_FONCTION(
    NOM_PARA="TEMP", VALE=(0.0, 6.0, 300.0, 6.0), PROL_DROITE="LINEAIRE", PROL_GAUCHE="LINEAIRE"
)

#
# ENTHALPIE

ENTH = DEFI_FONCTION(
    NOM_PARA="TEMP",
    VALE=(0.0, 6.55e05, 20.0, 7.03e05, 50.0, 7.75e05, 70.0, 8.23e05),
    PROL_DROITE="LINEAIRE",
    PROL_GAUCHE="LINEAIRE",
)

#
# CONSTANTE D'ARRHENIUS EN DEGRE KELVIN

MATHYDR = DEFI_MATERIAU(
    THER_HYDR=_F(
        LAMBDA=COND,
        BETA=ENTH,
        AFFINITE=AFF,
        CHALHYDR=1.4904e05,
        #                                   QSR_K=4000,
    )
)

CHMATNL = AFFE_MATERIAU(MAILLAGE=MAILTH, AFFE=_F(TOUT="OUI", MATER=MATHYDR))

#
# CHARGEMENT
# ----------
TEMPEXT = 25.0

TEMPINI = 20.9


# COEFF D'ECHANGE NUL EN ADIABATIQUE
COEFH = 0.0


CHATHER = AFFE_CHAR_THER(MODELE=MODTHER, ECHANGE=_F(GROUP_MA="DC", COEF_H=COEFH, TEMP_EXT=TEMPEXT))

CHATHERD = AFFE_CHAR_THER(
    MODELE=MODTHERD, ECHANGE=_F(GROUP_MA="DC", COEF_H=COEFH, TEMP_EXT=TEMPEXT)
)

#
#
# =====================================================================
#                            LISTE D'INSTANTS
# =====================================================================

LINST = DEFI_LIST_REEL(
    DEBUT=0.0,
    INTERVALLE=(
        _F(JUSQU_A=5.0, NOMBRE=40),
        _F(JUSQU_A=15.0, NOMBRE=80),
        _F(JUSQU_A=20.0, NOMBRE=40),
        _F(JUSQU_A=60.0, NOMBRE=40),
    ),
)

#
# =====================================================================
#   CALCUL TRANSITOIRE THERMO-HYDRATANT
# =====================================================================

TEMPINIT = CREA_CHAMP(
    TYPE_CHAM="NOEU_TEMP_R",
    OPERATION="AFFE",
    MAILLAGE=MAILTH,
    AFFE=_F(TOUT="OUI", NOM_CMP="TEMP", VALE=TEMPINI),
)

RESUTHYD = THER_NON_LINE(
    MODELE=MODTHER,
    CHAM_MATER=CHMATNL,
    COMPORTEMENT=_F(RELATION="THER_HYDR"),
    EXCIT=_F(CHARGE=CHATHER),
    INCREMENT=_F(LIST_INST=LINST),
    ETAT_INIT=_F(CHAM_NO=TEMPINIT),
    CONVERGENCE=_F(RESI_GLOB_MAXI=1.0e-5),
    SCHEMA_TEMPS=_F(SCHEMA="THETA", THETA=0.57),
)

RESUDIAG = THER_NON_LINE(
    MODELE=MODTHERD,
    CHAM_MATER=CHMATNL,
    COMPORTEMENT=_F(RELATION="THER_HYDR"),
    EXCIT=_F(CHARGE=CHATHERD),
    INCREMENT=_F(LIST_INST=LINST),
    ETAT_INIT=_F(CHAM_NO=TEMPINIT),
    CONVERGENCE=_F(RESI_GLOB_MAXI=1e-05),
    SCHEMA_TEMPS=_F(SCHEMA="THETA", THETA=0.57),
)

RESUTHYD = CALC_CHAMP(reuse=RESUTHYD, RESULTAT=RESUTHYD, THERMIQUE=("FLUX_ELGA", "FLUX_NOEU"))
RESUDIAG = CALC_CHAMP(reuse=RESUDIAG, RESULTAT=RESUDIAG, THERMIQUE=("FLUX_ELGA", "FLUX_NOEU"))

##############################


# TESTS DES RESULTATS
##############################


# VALIDATION
# VALEURS DE REFENCE DU CAS TEST: C.F. DOC DU CAS TEST TTNL03A

T05 = CREA_CHAMP(
    TYPE_CHAM="NOEU_TEMP_R", OPERATION="EXTR", RESULTAT=RESUTHYD, NOM_CHAM="TEMP", NUME_ORDRE=40
)

T05D = CREA_CHAMP(
    TYPE_CHAM="NOEU_TEMP_R", OPERATION="EXTR", RESULTAT=RESUDIAG, NOM_CHAM="TEMP", NUME_ORDRE=40
)

T15 = CREA_CHAMP(
    TYPE_CHAM="NOEU_TEMP_R", OPERATION="EXTR", RESULTAT=RESUTHYD, NOM_CHAM="TEMP", NUME_ORDRE=120
)

T15D = CREA_CHAMP(
    TYPE_CHAM="NOEU_TEMP_R", OPERATION="EXTR", RESULTAT=RESUDIAG, NOM_CHAM="TEMP", NUME_ORDRE=120
)

T60 = CREA_CHAMP(
    TYPE_CHAM="NOEU_TEMP_R", OPERATION="EXTR", RESULTAT=RESUTHYD, NOM_CHAM="TEMP", NUME_ORDRE=200
)

T60D = CREA_CHAMP(
    TYPE_CHAM="NOEU_TEMP_R", OPERATION="EXTR", RESULTAT=RESUDIAG, NOM_CHAM="TEMP", NUME_ORDRE=200
)

TEST_RESU(
    CHAM_NO=(
        _F(
            REFERENCE="SOURCE_EXTERNE",
            NOM_CMP="TEMP",
            GROUP_NO="A",
            PRECISION=1.0e-2,
            CHAM_GD=T05,
            VALE_CALC=22.4567432773,
            VALE_REFE=22.5,
        ),
        _F(
            REFERENCE="SOURCE_EXTERNE",
            NOM_CMP="TEMP",
            GROUP_NO="A",
            PRECISION=1.0e-2,
            CHAM_GD=T05D,
            VALE_CALC=22.4567432773,
            VALE_REFE=22.5,
        ),
        _F(
            REFERENCE="SOURCE_EXTERNE",
            NOM_CMP="TEMP",
            GROUP_NO="A",
            PRECISION=1.0e-2,
            CHAM_GD=T15,
            VALE_CALC=58.3479562884,
            VALE_REFE=57.799999999999997,
        ),
        _F(
            REFERENCE="SOURCE_EXTERNE",
            NOM_CMP="TEMP",
            GROUP_NO="A",
            PRECISION=1.0e-2,
            CHAM_GD=T15D,
            VALE_CALC=58.3479562884,
            VALE_REFE=57.799999999999997,
        ),
        _F(
            REFERENCE="SOURCE_EXTERNE",
            NOM_CMP="TEMP",
            GROUP_NO="A",
            PRECISION=1.0e-2,
            CHAM_GD=T60,
            VALE_CALC=78.8423957629,
            VALE_REFE=79.099999999999994,
        ),
        _F(
            REFERENCE="SOURCE_EXTERNE",
            NOM_CMP="TEMP",
            GROUP_NO="A",
            PRECISION=1.0e-2,
            CHAM_GD=T60D,
            VALE_CALC=78.8423957629,
            VALE_REFE=79.099999999999994,
        ),
    )
)

# NON REGRESSION
# VALEURS DE REFERENCE ASTER DE LA VERSION 10.01.

TEST_RESU(
    CHAM_NO=(
        _F(NOM_CMP="TEMP", GROUP_NO="A", CHAM_GD=T05, VALE_CALC=22.4567432773),
        _F(NOM_CMP="TEMP", GROUP_NO="A", CHAM_GD=T05D, VALE_CALC=22.4567432773),
        _F(NOM_CMP="TEMP", GROUP_NO="A", CHAM_GD=T15, VALE_CALC=58.3479562884),
        _F(NOM_CMP="TEMP", GROUP_NO="A", CHAM_GD=T15D, VALE_CALC=58.3479562884),
        _F(NOM_CMP="TEMP", GROUP_NO="A", CHAM_GD=T60, VALE_CALC=78.8423957629),
        _F(NOM_CMP="TEMP", GROUP_NO="A", CHAM_GD=T60D, VALE_CALC=78.8423957629),
    )
)

# TESTS DE HYDR_ELNO ET HYDR_NOEU

RESUTHYD = CALC_CHAMP(reuse=RESUTHYD, RESULTAT=RESUTHYD, THERMIQUE=("HYDR_ELNO", "HYDR_NOEU"))

RESUDIAG = CALC_CHAMP(reuse=RESUDIAG, RESULTAT=RESUDIAG, THERMIQUE=("HYDR_ELNO", "HYDR_NOEU"))

HYDRELNO = CREA_CHAMP(
    TYPE_CHAM="ELNO_HYDR_R",
    OPERATION="EXTR",
    RESULTAT=RESUTHYD,
    NOM_CHAM="HYDR_ELNO",
    NUME_ORDRE=120,
)

HYDELNOD = CREA_CHAMP(
    TYPE_CHAM="ELNO_HYDR_R",
    OPERATION="EXTR",
    RESULTAT=RESUDIAG,
    NOM_CHAM="HYDR_ELNO",
    NUME_ORDRE=120,
)

HYDRNOEU = CREA_CHAMP(
    TYPE_CHAM="NOEU_HYDR_R",
    OPERATION="EXTR",
    RESULTAT=RESUTHYD,
    NOM_CHAM="HYDR_NOEU",
    NUME_ORDRE=120,
)

HYDNOEUD = CREA_CHAMP(
    TYPE_CHAM="NOEU_HYDR_R",
    OPERATION="EXTR",
    RESULTAT=RESUDIAG,
    NOM_CHAM="HYDR_NOEU",
    NUME_ORDRE=120,
)

TEST_RESU(
    CHAM_ELEM=(
        _F(
            REFERENCE="SOURCE_EXTERNE",
            POINT=1,
            NOM_CMP="HYDR",
            PRECISION=0.02,
            GROUP_MA="M15",
            CHAM_GD=HYDRELNO,
            VALE_CALC=0.603026672427,
            VALE_REFE=0.59399999999999997,
        ),
        _F(
            REFERENCE="SOURCE_EXTERNE",
            POINT=1,
            NOM_CMP="HYDR",
            PRECISION=0.02,
            GROUP_MA="M15",
            CHAM_GD=HYDELNOD,
            VALE_CALC=0.603026672427,
            VALE_REFE=0.59399999999999997,
        ),
    )
)

TEST_RESU(
    CHAM_NO=(
        _F(NOM_CMP="HYDR", GROUP_NO="A", CHAM_GD=HYDRNOEU, VALE_CALC=0.603026672427),
        _F(NOM_CMP="HYDR", GROUP_NO="A", CHAM_GD=HYDNOEUD, VALE_CALC=0.603026672427),
    )
)

###############################################################################################


#                                         CALCUL MECANIQUE                                    #
###############################################################################################


# MAILME=LIRE_MAILLAGE( )

MAILME = CREA_MAILLAGE(MAILLAGE=MAILTH, LINE_QUAD=_F(TOUT="OUI"))

MOMECA = AFFE_MODELE(
    MAILLAGE=MAILME, AFFE=_F(TOUT="OUI", PHENOMENE="MECANIQUE", MODELISATION="AXIS")
)

#

FCT1 = DEFI_FONCTION(
    NOM_PARA="EPSI",
    VALE=(0.200e-2, 400.0, 0.400e-2, 500.0),
    PROL_DROITE="LINEAIRE",
    PROL_GAUCHE="LINEAIRE",
)

#

FCT2 = DEFI_FONCTION(
    NOM_PARA="EPSI",
    VALE=(0.100e-2, 200.0, 0.300e-2, 300.0),
    PROL_DROITE="LINEAIRE",
    PROL_GAUCHE="LINEAIRE",
)

#

E = DEFI_FONCTION(
    NOM_PARA="HYDR",
    VALE=(0.0, 200.0e3, 1000.0, 200.0e3),
    PROL_DROITE="CONSTANT",
    PROL_GAUCHE="CONSTANT",
)

#

NU = DEFI_FONCTION(
    NOM_PARA="HYDR",
    VALE=(0.0, 0.3e0, 1000.0, 0.3e0),
    PROL_DROITE="CONSTANT",
    PROL_GAUCHE="CONSTANT",
)

#

ALPHA = DEFI_FONCTION(
    NOM_PARA="TEMP",
    VALE=(0.0, 10.0e-6, 1000.0, 10.0e-6),
    PROL_DROITE="CONSTANT",
    PROL_GAUCHE="CONSTANT",
)

#

CTRACB = DEFI_NAPPE(
    NOM_PARA="HYDR",
    PARA=(0.0, 50.0),
    FONCTION=(FCT1, FCT2),
    PROL_DROITE="LINEAIRE",
    PROL_GAUCHE="LINEAIRE",
)

#

RHOF = DEFI_CONSTANTE(VALE=2400.0)
MAT = DEFI_MATERIAU(
    ELAS_FO=_F(E=E, NU=NU, RHO=RHOF, TEMP_DEF_ALPHA=0.0e-3, ALPHA=ALPHA, B_ENDOGE=1.5e-06),
    TRACTION=_F(SIGM=CTRACB),
    THER=_F(LAMBDA=1.0e-3, RHO_CP=0.0e-3),
)

#

MODTHE2 = AFFE_MODELE(
    MAILLAGE=MAILME, AFFE=_F(TOUT="OUI", PHENOMENE="THERMIQUE", MODELISATION="AXIS")
)

#

RESUTHY2 = PROJ_CHAMP(RESULTAT=RESUTHYD, MODELE_1=MODTHER, MODELE_2=MODTHE2)

#

CM = AFFE_MATERIAU(
    MAILLAGE=MAILME,
    AFFE=_F(TOUT="OUI", MATER=MAT),
    AFFE_VARC=(
        _F(NOM_VARC="HYDR", EVOL=RESUTHY2),
        _F(NOM_VARC="TEMP", EVOL=RESUTHY2, VALE_REF=20.9),
    ),
)

#

CHMECA = AFFE_CHAR_MECA(MODELE=MOMECA, DDL_IMPO=_F(GROUP_NO="A", DY=0.0))

#

LISTMECA = DEFI_LIST_REEL(
    DEBUT=0.0,
    INTERVALLE=(
        _F(JUSQU_A=1.0, NOMBRE=1),
        _F(JUSQU_A=5.0, NOMBRE=5),
        _F(JUSQU_A=15.0, NOMBRE=5),
        _F(JUSQU_A=20.0, NOMBRE=5),
        _F(JUSQU_A=60.0, NOMBRE=5),
    ),
)

#

RESUMECA = STAT_NON_LINE(
    MODELE=MOMECA,
    CHAM_MATER=CM,
    EXCIT=_F(CHARGE=CHMECA),
    COMPORTEMENT=_F(RELATION="VMIS_ISOT_TRAC"),
    INCREMENT=_F(LIST_INST=LISTMECA),
    CONVERGENCE=_F(ITER_GLOB_MAXI=40),
    SOLVEUR=_F(METHODE="LDLT"),
    NEWTON=_F(MATRICE="TANGENTE"),
)

RESUMECA = CALC_CHAMP(
    reuse=RESUMECA, RESULTAT=RESUMECA, CONTRAINTE=("SIGM_ELNO"), VARI_INTERNE=("VARI_ELNO")
)


#

CHU1 = CREA_CHAMP(
    TYPE_CHAM="NOEU_DEPL_R", OPERATION="EXTR", RESULTAT=RESUMECA, NOM_CHAM="DEPL", NUME_ORDRE=21
)

#

TEST_RESU(CHAM_NO=_F(NOM_CMP="DX", GROUP_NO="B", CHAM_GD=CHU1, VALE_CALC=0.000578024382848))

#

RESUSTAT = MECA_STATIQUE(
    MODELE=MOMECA,
    CHAM_MATER=CM,
    EXCIT=_F(CHARGE=CHMECA),
    LIST_INST=LISTMECA,
    SOLVEUR=_F(METHODE="LDLT"),
)

#

CHV1 = CREA_CHAMP(
    TYPE_CHAM="NOEU_DEPL_R", OPERATION="EXTR", RESULTAT=RESUSTAT, NOM_CHAM="DEPL", NUME_ORDRE=21
)

#

TEST_RESU(CHAM_NO=_F(NOM_CMP="DX", GROUP_NO="B", CHAM_GD=CHV1, VALE_CALC=0.000571731291438))

#

FIN()
