# coding=utf-8
# --------------------------------------------------------------------
# Copyright (C) 1991 - 2025 - EDF R&D - www.code-aster.org
# This file is part of code_aster.
#
# code_aster is free software: you can redistribute it and/or modify
# it under the terms of the GNU General Public License as published by
# the Free Software Foundation, either version 3 of the License, or
# (at your option) any later version.
#
# code_aster is distributed in the hope that it will be useful,
# but WITHOUT ANY WARRANTY; without even the implied warranty of
# MERCHANTABILITY or FITNESS FOR A PARTICULAR PURPOSE.  See the
# GNU General Public License for more details.
#
# You should have received a copy of the GNU General Public License
# along with code_aster.  If not, see <http://www.gnu.org/licenses/>.
# --------------------------------------------------------------------

#       AVEC PROPRIETES VARIABLES
# MAILLES : PENTA6
#

DEBUT(CODE="OUI", ERREUR=_F(ALARME="EXCEPTION"), DEBUG=_F(SDVERI="OUI"))

#
# LECTURE DU MAILLAGE ----------------------------------------------
#

MAIL = LIRE_MAILLAGE(FORMAT="MED")

#
# DEFINITION DES CHARGEMENTS ET DU MATERIAU ------------------------
#

TGAUCHE = DEFI_FONCTION(
    NOM_RESU="TEMP",
    NOM_PARA="INST",
    VALE=(0.0e0, 200.0e0, 10.0e0, 200.0e0, 10.001e0, 100.0e0, 100.0e0, 100.0e0),
)

TDROITE = DEFI_FONCTION(NOM_RESU="TEMP", NOM_PARA="INST", VALE=(0.0e0, 100.0e0, 100.0e0, 100.0e0))

CONDUC = DEFI_FONCTION(
    NOM_PARA="TEMP",
    NOM_RESU="LAMBDA",
    VALE=(0.0, 2.0e2, 500.0, 7.0e2),
    PROL_DROITE="LINEAIRE",
    PROL_GAUCHE="LINEAIRE",
)

ENTHAL = DEFI_FONCTION(
    NOM_PARA="TEMP",
    NOM_RESU="CP",
    VALE=(0.0, 0.0, 500.0, 4000.0e6),
    PROL_DROITE="LINEAIRE",
    PROL_GAUCHE="LINEAIRE",
)

MATER = DEFI_MATERIAU(THER_NL=_F(LAMBDA=CONDUC, BETA=ENTHAL))

#
# AFFECTATIONS: MATERIAU, MODELE, CHARGEMENT ----------------------
#


CHMAT = AFFE_MATERIAU(MAILLAGE=MAIL, AFFE=_F(TOUT="OUI", MATER=MATER))

MOTH = AFFE_MODELE(MAILLAGE=MAIL, AFFE=_F(TOUT="OUI", MODELISATION="3D", PHENOMENE="THERMIQUE"))

CHTH = AFFE_CHAR_THER_F(
    MODELE=MOTH,
    TEMP_IMPO=(_F(GROUP_NO="NOE_GAU", TEMP=TGAUCHE), _F(GROUP_NO="NOE_DRO", TEMP=TDROITE)),
)

#
# DEFINITION DE LA STATEGIE DE CALCUL -----------------------------
#

LR8 = DEFI_LIST_REEL(
    DEBUT=0.0,
    INTERVALLE=(
        _F(JUSQU_A=1.0e-3, NOMBRE=10),
        _F(JUSQU_A=1.0e-2, NOMBRE=9),
        _F(JUSQU_A=1.0e-1, NOMBRE=9),
        _F(JUSQU_A=1.0e0, NOMBRE=9),
        _F(JUSQU_A=10.0e0, NOMBRE=9),
        _F(JUSQU_A=13.0e0, NOMBRE=3),
    ),
)

#
# RESOLUTION ------------------------------------------------------
#

TEMPE = THER_NON_LINE(
    MODELE=MOTH,
    ETAT_INIT=_F(VALE=100.0),
    INCREMENT=_F(LIST_INST=LR8),
    CHAM_MATER=CHMAT,
    EXCIT=_F(CHARGE=CHTH),
)

TEMP_10 = CREA_CHAMP(
    OPERATION="EXTR", TYPE_CHAM="NOEU_TEMP_R", NOM_CHAM="TEMP", RESULTAT=TEMPE, INST=10.0
)

TEMP_13 = CREA_CHAMP(
    OPERATION="EXTR", TYPE_CHAM="NOEU_TEMP_R", NOM_CHAM="TEMP", RESULTAT=TEMPE, INST=13.0
)

#
# ANALYSE DES RESULTATS -------------------------------------------
#

TEST_RESU(
    CHAM_NO=(
        _F(
            GROUP_NO="N10",
            NOM_CMP="TEMP",
            PRECISION=1.0e-2,
            CHAM_GD=TEMP_10,
            VALE_CALC=175.698124801,
            VALE_REFE=176.16499999999999,
            REFERENCE="NON_DEFINI",
        ),
        _F(
            GROUP_NO="N19",
            NOM_CMP="TEMP",
            PRECISION=1.0e-2,
            CHAM_GD=TEMP_10,
            VALE_CALC=152.306990647,
            VALE_REFE=153.21299999999999,
            REFERENCE="NON_DEFINI",
        ),
        _F(
            GROUP_NO="N37",
            NOM_CMP="TEMP",
            PRECISION=1.0e-2,
            CHAM_GD=TEMP_10,
            VALE_CALC=117.584867963,
            VALE_REFE=118.59999999999999,
            REFERENCE="NON_DEFINI",
        ),
        _F(
            GROUP_NO="N55",
            NOM_CMP="TEMP",
            PRECISION=1.0e-2,
            CHAM_GD=TEMP_10,
            VALE_CALC=103.307413143,
            VALE_REFE=103.715,
            REFERENCE="NON_DEFINI",
        ),
        _F(
            GROUP_NO="N73",
            NOM_CMP="TEMP",
            PRECISION=1.0e-2,
            CHAM_GD=TEMP_10,
            VALE_CALC=100.302287177,
            VALE_REFE=100.36799999999999,
            REFERENCE="NON_DEFINI",
        ),
        _F(
            GROUP_NO="N91",
            NOM_CMP="TEMP",
            PRECISION=1.0e-2,
            CHAM_GD=TEMP_10,
            VALE_CALC=100.008253896,
            VALE_REFE=100.014,
            REFERENCE="NON_DEFINI",
        ),
        _F(
            GROUP_NO="N17",
            NOM_CMP="TEMP",
            PRECISION=1.0e-2,
            CHAM_GD=TEMP_10,
            VALE_CALC=175.532852315,
            VALE_REFE=176.16499999999999,
            REFERENCE="NON_DEFINI",
        ),
        _F(
            GROUP_NO="N26",
            NOM_CMP="TEMP",
            PRECISION=1.0e-2,
            CHAM_GD=TEMP_10,
            VALE_CALC=152.153302949,
            VALE_REFE=153.21299999999999,
            REFERENCE="NON_DEFINI",
        ),
        _F(
            GROUP_NO="N44",
            NOM_CMP="TEMP",
            PRECISION=1.0e-2,
            CHAM_GD=TEMP_10,
            VALE_CALC=117.637861569,
            VALE_REFE=118.59999999999999,
            REFERENCE="NON_DEFINI",
        ),
        _F(
            GROUP_NO="N62",
            NOM_CMP="TEMP",
            PRECISION=1.0e-2,
            CHAM_GD=TEMP_10,
            VALE_CALC=103.433464600,
            VALE_REFE=103.715,
            REFERENCE="NON_DEFINI",
        ),
        _F(
            GROUP_NO="N80",
            NOM_CMP="TEMP",
            PRECISION=1.0e-2,
            CHAM_GD=TEMP_10,
            VALE_CALC=100.351678445,
            VALE_REFE=100.36799999999999,
            REFERENCE="NON_DEFINI",
        ),
        _F(
            GROUP_NO="N98",
            NOM_CMP="TEMP",
            PRECISION=1.0e-2,
            CHAM_GD=TEMP_10,
            VALE_CALC=100.015834424,
            VALE_REFE=100.014,
            REFERENCE="NON_DEFINI",
        ),
        _F(
            GROUP_NO="N18",
            NOM_CMP="TEMP",
            PRECISION=1.0e-2,
            CHAM_GD=TEMP_10,
            VALE_CALC=175.532852315,
            VALE_REFE=176.16499999999999,
            REFERENCE="NON_DEFINI",
        ),
        _F(
            GROUP_NO="N27",
            NOM_CMP="TEMP",
            PRECISION=1.0e-2,
            CHAM_GD=TEMP_10,
            VALE_CALC=152.153302949,
            VALE_REFE=153.21299999999999,
            REFERENCE="NON_DEFINI",
        ),
        _F(
            GROUP_NO="N45",
            NOM_CMP="TEMP",
            PRECISION=1.0e-2,
            CHAM_GD=TEMP_10,
            VALE_CALC=117.637861569,
            VALE_REFE=118.59999999999999,
            REFERENCE="NON_DEFINI",
        ),
        _F(
            GROUP_NO="N63",
            NOM_CMP="TEMP",
            PRECISION=1.0e-2,
            CHAM_GD=TEMP_10,
            VALE_CALC=103.433464600,
            VALE_REFE=103.715,
            REFERENCE="NON_DEFINI",
        ),
        _F(
            GROUP_NO="N81",
            NOM_CMP="TEMP",
            PRECISION=1.0e-2,
            CHAM_GD=TEMP_10,
            VALE_CALC=100.351678445,
            VALE_REFE=100.36799999999999,
            REFERENCE="NON_DEFINI",
        ),
        _F(
            GROUP_NO="N99",
            NOM_CMP="TEMP",
            PRECISION=1.0e-2,
            CHAM_GD=TEMP_10,
            VALE_CALC=100.015834424,
            VALE_REFE=100.014,
            REFERENCE="NON_DEFINI",
        ),
        _F(
            GROUP_NO="N10",
            NOM_CMP="TEMP",
            PRECISION=0.02,
            CHAM_GD=TEMP_13,
            VALE_CALC=129.490146962,
            VALE_REFE=128.125,
            REFERENCE="NON_DEFINI",
        ),
        _F(
            GROUP_NO="N19",
            NOM_CMP="TEMP",
            PRECISION=1.0e-2,
            CHAM_GD=TEMP_13,
            VALE_CALC=140.191467040,
            VALE_REFE=139.97,
            REFERENCE="NON_DEFINI",
        ),
        _F(
            GROUP_NO="N37",
            NOM_CMP="TEMP",
            PRECISION=1.0e-2,
            CHAM_GD=TEMP_13,
            VALE_CALC=124.034680740,
            VALE_REFE=124.71899999999999,
            REFERENCE="NON_DEFINI",
        ),
        _F(
            GROUP_NO="N55",
            NOM_CMP="TEMP",
            PRECISION=1.0e-2,
            CHAM_GD=TEMP_13,
            VALE_CALC=106.717857410,
            VALE_REFE=107.182,
            REFERENCE="NON_DEFINI",
        ),
        _F(
            GROUP_NO="N73",
            NOM_CMP="TEMP",
            PRECISION=1.0e-2,
            CHAM_GD=TEMP_13,
            VALE_CALC=101.157028874,
            VALE_REFE=101.29000000000001,
            REFERENCE="NON_DEFINI",
        ),
        _F(
            GROUP_NO="N91",
            NOM_CMP="TEMP",
            PRECISION=1.0e-2,
            CHAM_GD=TEMP_13,
            VALE_CALC=100.114601303,
            VALE_REFE=100.134,
            REFERENCE="NON_DEFINI",
        ),
        _F(
            GROUP_NO="N17",
            NOM_CMP="TEMP",
            PRECISION=1.0e-2,
            CHAM_GD=TEMP_13,
            VALE_CALC=128.384318968,
            VALE_REFE=128.125,
            REFERENCE="NON_DEFINI",
        ),
        _F(
            GROUP_NO="N26",
            NOM_CMP="TEMP",
            PRECISION=1.0e-2,
            CHAM_GD=TEMP_13,
            VALE_CALC=140.597637175,
            VALE_REFE=139.97,
            REFERENCE="NON_DEFINI",
        ),
        _F(
            GROUP_NO="N44",
            NOM_CMP="TEMP",
            PRECISION=1.0e-2,
            CHAM_GD=TEMP_13,
            VALE_CALC=123.620367266,
            VALE_REFE=124.71899999999999,
            REFERENCE="NON_DEFINI",
        ),
        _F(
            GROUP_NO="N62",
            NOM_CMP="TEMP",
            PRECISION=1.0e-2,
            CHAM_GD=TEMP_13,
            VALE_CALC=106.789364271,
            VALE_REFE=107.182,
            REFERENCE="NON_DEFINI",
        ),
        _F(
            GROUP_NO="N80",
            NOM_CMP="TEMP",
            PRECISION=1.0e-2,
            CHAM_GD=TEMP_13,
            VALE_CALC=101.216648872,
            VALE_REFE=101.29000000000001,
            REFERENCE="NON_DEFINI",
        ),
        _F(
            GROUP_NO="N98",
            NOM_CMP="TEMP",
            PRECISION=1.0e-2,
            CHAM_GD=TEMP_13,
            VALE_CALC=100.132016641,
            VALE_REFE=100.134,
            REFERENCE="NON_DEFINI",
        ),
        _F(
            GROUP_NO="N18",
            NOM_CMP="TEMP",
            PRECISION=1.0e-2,
            CHAM_GD=TEMP_13,
            VALE_CALC=128.384318968,
            VALE_REFE=128.125,
            REFERENCE="NON_DEFINI",
        ),
        _F(
            GROUP_NO="N27",
            NOM_CMP="TEMP",
            PRECISION=1.0e-2,
            CHAM_GD=TEMP_13,
            VALE_CALC=140.597637175,
            VALE_REFE=139.97,
            REFERENCE="NON_DEFINI",
        ),
        _F(
            GROUP_NO="N45",
            NOM_CMP="TEMP",
            PRECISION=1.0e-2,
            CHAM_GD=TEMP_13,
            VALE_CALC=123.620367266,
            VALE_REFE=124.71899999999999,
            REFERENCE="NON_DEFINI",
        ),
        _F(
            GROUP_NO="N63",
            NOM_CMP="TEMP",
            PRECISION=1.0e-2,
            CHAM_GD=TEMP_13,
            VALE_CALC=106.789364271,
            VALE_REFE=107.182,
            REFERENCE="NON_DEFINI",
        ),
        _F(
            GROUP_NO="N81",
            NOM_CMP="TEMP",
            PRECISION=1.0e-2,
            CHAM_GD=TEMP_13,
            VALE_CALC=101.216648872,
            VALE_REFE=101.29000000000001,
            REFERENCE="NON_DEFINI",
        ),
        _F(
            GROUP_NO="N99",
            NOM_CMP="TEMP",
            PRECISION=1.0e-2,
            CHAM_GD=TEMP_13,
            VALE_CALC=100.132016641,
            VALE_REFE=100.134,
            REFERENCE="NON_DEFINI",
        ),
    )
)

FIN()
#
