# coding=utf-8
# --------------------------------------------------------------------
# Copyright (C) 1991 - 2025 - EDF R&D - www.code-aster.org
# This file is part of code_aster.
#
# code_aster is free software: you can redistribute it and/or modify
# it under the terms of the GNU General Public License as published by
# the Free Software Foundation, either version 3 of the License, or
# (at your option) any later version.
#
# code_aster is distributed in the hope that it will be useful,
# but WITHOUT ANY WARRANTY; without even the implied warranty of
# MERCHANTABILITY or FITNESS FOR A PARTICULAR PURPOSE.  See the
# GNU General Public License for more details.
#
# You should have received a copy of the GNU General Public License
# along with code_aster.  If not, see <http://www.gnu.org/licenses/>.
# --------------------------------------------------------------------

DEBUT(CODE="OUI", ERREUR=_F(ALARME="EXCEPTION"), DEBUG=_F(SDVERI="OUI"))


CONDUC = DEFI_FONCTION(
    NOM_PARA="TEMP",
    VALE=(0.0, 210.0, 660.0, 210.0, 660.01, 95.0, 1200.00, 95.0),
    PROL_DROITE="LINEAIRE",
    PROL_GAUCHE="LINEAIRE",
)

ENTHAL = DEFI_FONCTION(
    NOM_PARA="TEMP",
    VALE=(0.0, 0.0, 660.0, 1.980e9, 660.01, 3.060e9, 1200.00, 4.451e9),
    PROL_DROITE="LINEAIRE",
    PROL_GAUCHE="LINEAIRE",
)

ENTHAL1 = DEFI_FONCTION(
    NOM_PARA="TEMP",
    VALE=(0.0, 0.0, 650.0, 1.950e9, 670.0, 3.0857593e9, 1200.00, 4.451e9),
    PROL_DROITE="LINEAIRE",
    PROL_GAUCHE="LINEAIRE",
)

ALU = DEFI_MATERIAU(THER_NL=_F(LAMBDA=CONDUC, BETA=ENTHAL))

ALU1 = DEFI_MATERIAU(THER_NL=_F(LAMBDA=CONDUC, BETA=ENTHAL1))

MAIL0 = LIRE_MAILLAGE(FORMAT="MED", PARTITIONNEUR="PTSCOTCH")

MAIL = CREA_MAILLAGE(MAILLAGE=MAIL0, MODI_HHO=_F(TOUT="OUI"))

CHMAT = AFFE_MATERIAU(MAILLAGE=MAIL, AFFE=_F(TOUT="OUI", MATER=ALU))

CHMAT1 = AFFE_MATERIAU(MAILLAGE=MAIL, AFFE=_F(TOUT="OUI", MATER=ALU1))

MOTH = AFFE_MODELE(
    MAILLAGE=MAIL,
    AFFE=_F(TOUT="OUI", MODELISATION="PLAN_HHO", PHENOMENE="THERMIQUE", FORMULATION="CONSTANTE"),
)

CHTH = AFFE_CHAR_CINE(
    MODELE=MOTH, THER_IMPO=(_F(GROUP_MA="GRMA2", TEMP=740.0), _F(GROUP_MA="GRMA1", TEMP=580.0))
)

F = DEFI_CONSTANTE(VALE=1.0)

LR8 = DEFI_LIST_REEL(
    DEBUT=0.0e0,
    INTERVALLE=(
        _F(JUSQU_A=5.0e-3, NOMBRE=10),
        _F(JUSQU_A=5.0e-2, NOMBRE=9),
        _F(JUSQU_A=4.0e-0, NOMBRE=79),
        _F(JUSQU_A=6.0e-0, NOMBRE=20),
    ),
)

TEMPE = THER_NON_LINE(
    MODELE=MOTH,
    ETAT_INIT=_F(VALE=740),
    INCREMENT=_F(LIST_INST=LR8, NUME_INST_FIN=10),
    CHAM_MATER=CHMAT1,
    EXCIT=_F(CHARGE=CHTH, FONC_MULT=F),
    NEWTON=_F(ITER_LINE_MAXI=2, REAC_ITER=2),
    CONVERGENCE=_F(RESI_GLOB_RELA=1e-10),
    SCHEMA_TEMPS=_F(SCHEMA="THETA", THETA=0.9),
)


LIS = DEFI_LIST_REEL(VALE=(0.5, 1.0, 3.0, 6.0))

TEMPE = THER_NON_LINE(
    reuse=TEMPE,
    MODELE=MOTH,
    ETAT_INIT=_F(EVOL_THER=TEMPE, NUME_ORDRE=10),
    INCREMENT=_F(LIST_INST=LR8, NUME_INST_INIT=10),
    CHAM_MATER=CHMAT1,
    EXCIT=_F(CHARGE=CHTH),
    NEWTON=_F(ITER_LINE_MAXI=2, REAC_ITER=1),
    CONVERGENCE=_F(RESI_GLOB_MAXI=1.0e-1),
    SCHEMA_TEMPS=_F(SCHEMA="THETA", THETA=0.9),
    ARCHIVAGE=_F(LIST_INST=LIS),
)

T_0 = CREA_CHAMP(
    OPERATION="EXTR", TYPE_CHAM="NOEU_TEMP_R", RESULTAT=TEMPE, NOM_CHAM="HHO_TEMP", INST=0.0
)

T_1 = CREA_CHAMP(
    OPERATION="EXTR", TYPE_CHAM="NOEU_TEMP_R", RESULTAT=TEMPE, NOM_CHAM="HHO_TEMP", INST=0.5
)

T_2 = CREA_CHAMP(
    OPERATION="EXTR", TYPE_CHAM="NOEU_TEMP_R", RESULTAT=TEMPE, NOM_CHAM="HHO_TEMP", INST=1.0
)

T_3 = CREA_CHAMP(
    OPERATION="EXTR", TYPE_CHAM="NOEU_TEMP_R", RESULTAT=TEMPE, NOM_CHAM="HHO_TEMP", INST=3.0
)

T_4 = CREA_CHAMP(
    OPERATION="EXTR", TYPE_CHAM="NOEU_TEMP_R", RESULTAT=TEMPE, NOM_CHAM="HHO_TEMP", INST=6.0
)

TEST_RESU(
    CHAM_NO=(
        _F(
            GROUP_NO="N6",
            REFERENCE="ANALYTIQUE",
            NOM_CMP="TEMP",
            PRECISION=1.0e-2,
            CHAM_GD=T_0,
            VALE_CALC=740,
            VALE_REFE=740,
        ),
        _F(
            GROUP_NO="N6",
            REFERENCE="ANALYTIQUE",
            NOM_CMP="TEMP",
            PRECISION=3.0e-2,
            CHAM_GD=T_1,
            VALE_CALC=697.7536991144265,
            VALE_REFE=682.42999999999995,
        ),
        _F(
            GROUP_NO="N6",
            REFERENCE="ANALYTIQUE",
            NOM_CMP="TEMP",
            PRECISION=3.0e-2,
            CHAM_GD=T_2,
            VALE_CALC=680.5819335993751,
            VALE_REFE=661.33000000000004,
        ),
        _F(
            GROUP_NO="N6",
            REFERENCE="ANALYTIQUE",
            NOM_CMP="TEMP",
            PRECISION=1.0e-2,
            CHAM_GD=T_3,
            VALE_CALC=632.4415078616278,
            VALE_REFE=628.20000000000005,
        ),
        _F(
            GROUP_NO="N6",
            REFERENCE="ANALYTIQUE",
            NOM_CMP="TEMP",
            PRECISION=1.0e-2,
            CHAM_GD=T_4,
            VALE_CALC=612.2392773383981,
            VALE_REFE=614.25,
        ),
        _F(
            GROUP_NO="N11",
            REFERENCE="ANALYTIQUE",
            NOM_CMP="TEMP",
            PRECISION=2.0e-2,
            CHAM_GD=T_1,
            VALE_CALC=736.0517193540358,
            VALE_REFE=726.04999999999995,
        ),
        _F(
            GROUP_NO="N11",
            REFERENCE="ANALYTIQUE",
            NOM_CMP="TEMP",
            PRECISION=3.0e-2,
            CHAM_GD=T_2,
            VALE_CALC=720.7621060967414,
            VALE_REFE=705.75,
        ),
        _F(
            GROUP_NO="N11",
            REFERENCE="ANALYTIQUE",
            NOM_CMP="TEMP",
            PRECISION=2.0e-2,
            CHAM_GD=T_3,
            VALE_CALC=680.2748055803811,
            VALE_REFE=669.63,
        ),
        _F(
            GROUP_NO="N11",
            REFERENCE="ANALYTIQUE",
            NOM_CMP="TEMP",
            PRECISION=1.0e-2,
            CHAM_GD=T_4,
            VALE_CALC=647.688975775292,
            VALE_REFE=647.49000000000001,
        ),
        _F(
            GROUP_NO="N16",
            REFERENCE="ANALYTIQUE",
            NOM_CMP="TEMP",
            PRECISION=1.0e-2,
            CHAM_GD=T_1,
            VALE_CALC=740.2745644678494,
            VALE_REFE=738.11000000000001,
        ),
        _F(
            GROUP_NO="N16",
            REFERENCE="ANALYTIQUE",
            NOM_CMP="TEMP",
            PRECISION=1.5e-2,
            CHAM_GD=T_2,
            VALE_CALC=735.9872983105909,
            VALE_REFE=728.70000000000005,
        ),
        _F(
            GROUP_NO="N16",
            REFERENCE="ANALYTIQUE",
            NOM_CMP="TEMP",
            PRECISION=2.0e-2,
            CHAM_GD=T_3,
            VALE_CALC=707.47857031463,
            VALE_REFE=696.05999999999995,
        ),
        _F(
            GROUP_NO="N16",
            REFERENCE="ANALYTIQUE",
            NOM_CMP="TEMP",
            PRECISION=2.0e-2,
            CHAM_GD=T_4,
            VALE_CALC=680.1641072080218,
            VALE_REFE=673.22000000000003,
        ),
        _F(
            GROUP_NO="N21",
            REFERENCE="ANALYTIQUE",
            NOM_CMP="TEMP",
            PRECISION=1.0e-2,
            CHAM_GD=T_1,
            VALE_CALC=740.3206779265126,
            VALE_REFE=739.86000000000001,
        ),
        _F(
            GROUP_NO="N21",
            REFERENCE="ANALYTIQUE",
            NOM_CMP="TEMP",
            PRECISION=1.0e-2,
            CHAM_GD=T_2,
            VALE_CALC=739.7367224272064,
            VALE_REFE=737.22000000000003,
        ),
        _F(
            GROUP_NO="N21",
            REFERENCE="ANALYTIQUE",
            NOM_CMP="TEMP",
            PRECISION=1.0e-2,
            CHAM_GD=T_3,
            VALE_CALC=721.6567889290418,
            VALE_REFE=714.94000000000005,
        ),
        _F(
            GROUP_NO="N21",
            REFERENCE="ANALYTIQUE",
            NOM_CMP="TEMP",
            PRECISION=1.5e-2,
            CHAM_GD=T_4,
            VALE_CALC=699.9795542911756,
            VALE_REFE=692.05999999999995,
        ),
    )
)

FIN()
#
