# coding=utf-8
# --------------------------------------------------------------------
# Copyright (C) 1991 - 2025 - EDF R&D - www.code-aster.org
# This file is part of code_aster.
#
# code_aster is free software: you can redistribute it and/or modify
# it under the terms of the GNU General Public License as published by
# the Free Software Foundation, either version 3 of the License, or
# (at your option) any later version.
#
# code_aster is distributed in the hope that it will be useful,
# but WITHOUT ANY WARRANTY; without even the implied warranty of
# MERCHANTABILITY or FITNESS FOR A PARTICULAR PURPOSE.  See the
# GNU General Public License for more details.
#
# You should have received a copy of the GNU General Public License
# along with code_aster.  If not, see <http://www.gnu.org/licenses/>.
# --------------------------------------------------------------------

# Test de non regression pour la loi HYDR_TABBAL
# ****************************************************************


def Sipinit_de_PcPg(Biot, S, Pg, Pc):
    Sip = -Biot * (Pg - S * Pc)
    return Sip


########################################


DEBUT(CODE="OUI", DEBUG=_F(SDVERI="OUI"))

###Lire le maillage
# ~ ***********************
mesh = LIRE_MAILLAGE(UNITE=20)


# *********************************************************
### Definition des caracteristiques fluides
# **********************************************************

VISCOLIQ = DEFI_CONSTANTE(VALE=9.94e-4)
VISCOGAZ = DEFI_CONSTANTE(VALE=1.13e-05)
RHOW = 1000.0
RHOA = 1.2

# PERMEABILITE
perm = 1e-14
KINT = DEFI_CONSTANTE(VALE=perm)

# PARAMETRE VAN-GENUCHTEN

NCOQ = 1.3171
PRCOQ = 7.594e7
SRCOQ = -1.029
S100 = 0.85
FACK = 0.9
p = 0.5
q = 2

### Module d'Young
# *******************
Ebet = 54e9


### Porosite et masses volumiques
# **********************************
poro_coq = 0.082
MAMOLVAP = 0.018
R = 8.314
SINI = 0.7
RHOH = 2600

### Terme de couplage
# ~ ***********************
BIOCOQ = 0.7
Nu = 0.2

### Valeurs de reference
# ~ ************************
TREF = 273.15
P2REF = 1.0e5


# Fonction de Van Genuchten/muallem
LI1 = DEFI_LIST_REEL(
    DEBUT=0,
    INTERVALLE=(
        _F(JUSQU_A=1.0e6, NOMBRE=20),
        _F(JUSQU_A=1.0e7, NOMBRE=20),
        _F(JUSQU_A=1.5e7, NOMBRE=10),
        _F(JUSQU_A=5.5e7, NOMBRE=10),
        _F(JUSQU_A=8.2e7, NOMBRE=10),
        _F(JUSQU_A=1.5e8, NOMBRE=20),
        _F(JUSQU_A=1.0e9, NOMBRE=20),
    ),
)
LI2 = DEFI_LIST_REEL(DEBUT=SRCOQ + 0.001, INTERVALLE=_F(JUSQU_A=0.999, PAS=1.0e-2))

MCOQ = 1 - 1.0 / NCOQ

SLO = DEFI_FONCTION(
    NOM_PARA="PCAP",
    INTERPOL="LIN",
    PROL_DROITE="CONSTANT",
    PROL_GAUCHE="CONSTANT",
    VALE=(
        0.0,
        0.79970517530499996,
        1346752.1237899999,
        0.78995599570399999,
        2693221.0965899997,
        0.78020681610300002,
        4053214.1968899998,
        0.77045763650200005,
        5427005.8600400006,
        0.76070845690099997,
        6814878.9604599997,
        0.75095927730000001,
        8217125.1612699991,
        0.74121009770000001,
        9634045.28211,
        0.73146091809900005,
        11065949.6865,
        0.72171173849799997,
        12513158.690099999,
        0.711962558897,
# ... 180 like lines cut
    ),
)


SATUB0 = CALC_FONC_INTERP(
    FONCTION=SLO,
    LIST_PARA=LI1,
    NOM_PARA="PCAP",
    PROL_DROITE="LINEAIRE",
    PROL_GAUCHE="LINEAIRE",
    INFO=2,
)
DSLO = FORMULE(
    NOM_PARA="PCAP",
    VALE="(S_100-SR_COQ)*(-M_COQ)*((1+(PCAP/(PR_COQ))**N_COQ)**(-M_COQ-1))*(N_COQ/(PR_COQ))*((PCAP/(PR_COQ))**(N_COQ-1))",
    S_100=S100,
    SR_COQ=SRCOQ,
    PR_COQ=PRCOQ,
    N_COQ=NCOQ,
    M_COQ=MCOQ,
)

DSATBO = CALC_FONC_INTERP(
    FONCTION=DSLO,
    LIST_PARA=LI1,
    NOM_PARA="PCAP",
    PROL_DROITE="LINEAIRE",
    PROL_GAUCHE="LINEAIRE",
    INFO=2,
)


KL = FORMULE(
    NOM_PARA="SAT",
    VALE="((((SAT-SR_COQ)/(S_100-SR_COQ))*FA_CK)**(p_))*(1-((1-((((SAT-SR_COQ)/(S_100-SR_COQ))*FA_CK)**(1./M_COQ)))**(M_COQ)))**q_",
    S_100=S100,
    SR_COQ=SRCOQ,
    p_=p,
    FA_CK=FACK,
    M_COQ=MCOQ,
    q_=q,
)


PKL = CALC_FONC_INTERP(
    FONCTION=KL,
    LIST_PARA=LI2,
    NOM_PARA="SAT",
    PROL_DROITE="CONSTANT",
    PROL_GAUCHE="CONSTANT",
    INFO=2,
)


DKL = FORMULE(
    NOM_PARA="SAT",
    VALE="((p_*FA_CK*(((SAT-SR_COQ)/(S_100-SR_COQ))*FA_CK)**(p_-1))*(1-((1-((((SAT-SR_COQ)/(S_100-SR_COQ))*FA_CK)**(1./M_COQ)))**(M_COQ)))**q_) + (((((SAT-SR_COQ)/(S_100-SR_COQ))*FA_CK)**(p_))* q_ * ((1-((1-((((SAT-SR_COQ)/(S_100-SR_COQ))*FA_CK)**(1./M_COQ)))**(M_COQ)))**(q_-1))*(-M_COQ)*((1-((((SAT-SR_COQ)/(S_100-SR_COQ))*FA_CK)**(1./M_COQ))**(M_COQ- 1))*((-1./M_COQ)*((((SAT-SR_COQ)/(S_100-SR_COQ
    S_100=S100,
    SR_COQ=SRCOQ,
    p_=p,
    FA_CK=FACK,
    M_COQ=MCOQ,
    q_=q,
)


PDKL = CALC_FONC_INTERP(
    FONCTION=DKL,
    LIST_PARA=LI2,
    NOM_PARA="SAT",
    PROL_DROITE="CONSTANT",
    PROL_GAUCHE="CONSTANT",
    INFO=2,
)

KG = FORMULE(
    NOM_PARA="SAT",
    VALE="((1-(((SAT-SR_COQ)/(S_100-SR_COQ))*FA_CK))**(p_))*((1-((((SAT-SR_COQ)/(S_100-SR_COQ))*FA_CK)**(1./M_COQ)))**(q_*M_COQ)) ",
    S_100=S100,
    SR_COQ=SRCOQ,
    p_=p,
    FA_CK=FACK,
    M_COQ=MCOQ,
    q_=q,
)


PKG = CALC_FONC_INTERP(
    FONCTION=KG,
    LIST_PARA=LI2,
    NOM_PARA="SAT",
    PROL_DROITE="CONSTANT",
    PROL_GAUCHE="CONSTANT",
    INFO=2,
)

DKG = FORMULE(
    NOM_PARA="SAT",
    VALE="((p_)*((1-(((SAT-SR_COQ)/(S_100-SR_COQ))*FA_CK))**(p_-1))*((1-((((SAT-SR_COQ)/(S_100-SR_COQ))*FA_CK)**(1./M_COQ)))**(q_*M_COQ)))+(((1-(((SAT-SR_COQ)/(S_100-SR_COQ))*FA_CK))**(p_))*(q_*M_COQ)*((1-((((SAT-SR_COQ)/(S_100-SR_COQ))*FA_CK)**(1./M_COQ)))**(q_*M_COQ-1))*((-FA_CK/M_COQ)*((((SAT-SR_COQ)/(S_100-SR_COQ))*FA_CK)**((1./M_COQ)-1))))",
    S_100=S100,
    SR_COQ=SRCOQ,
    p_=p,
    FA_CK=FACK,
    M_COQ=MCOQ,
    q_=q,
)


PDKG = CALC_FONC_INTERP(
    FONCTION=DKG,
    LIST_PARA=LI2,
    NOM_PARA="SAT",
    PROL_DROITE="CONSTANT",
    PROL_GAUCHE="CONSTANT",
    INFO=2,
)


### ETAT INITIAL
# ~ *****************
TINI = 20
PGZ0 = 1.0e5
P20 = PGZ0 - P2REF
PC0 = 13976002.9902  # Pour Sini = 0.702


## Liste instants

TFIN = 60 * 60

INST = DEFI_LIST_REEL(DEBUT=0.0, INTERVALLE=(_F(JUSQU_A=TFIN, NOMBRE=1),))
INST2 = DEFI_LIST_REEL(DEBUT=0.0, INTERVALLE=(_F(JUSQU_A=TFIN, NOMBRE=1),))


TIMES = DEFI_LIST_INST(
    ECHEC=_F(
        SUBD_NIVEAU=6,
        SUBD_PAS_MINI=0.0,
        SUBD_PAS=6,
        SUBD_METHODE="MANUEL",
        ACTION="DECOUPE",
        EVENEMENT="ERREUR",
    ),
    DEFI_LIST=_F(LIST_INST=INST2),
)


# Coefficient de Henry pour la dissolution

KHENRY = DEFI_CONSTANTE(VALE=1.30719e05)


ALPHAL = DEFI_CONSTANTE(VALE=1.0480e-04)
SBJH = DEFI_FONCTION(
    NOM_PARA="PCAP",
    INTERPOL="LIN",
    PROL_DROITE="CONSTANT",
    PROL_GAUCHE="CONSTANT",
    VALE=(
        0.0,
        0.79970517530499996,
        1346752.1237899999,
        0.789951480328,
        2693221.0965899997,
        0.77993528737700002,
        4053214.1968899998,
        0.76974933383300004,
        5427005.8600400006,
        0.75941524844800001,
        6814878.9604599997,
        0.74894433725800003,
        8217125.1612699991,
        0.73834428133899999,
        9634045.28211,
        0.72762093879199996,
        11065949.6865,
        0.71677907115899997,
        12513158.690099999,
        0.70582270795400004,
# ... 180 like lines cut
    ),
)
wBJH = DEFI_FONCTION(
    NOM_PARA="PCAP",
    INTERPOL="LIN",
    PROL_DROITE="CONSTANT",
    PROL_GAUCHE="CONSTANT",
    VALE=(
        0.0,
        4.74727493364e-05,
        1346752.1237899999,
        5.2049735375100002e-05,
        2693221.0965899997,
        0.00036235404386199998,
        4053214.1968899998,
        0.00092581734660500002,
        5427005.8600400006,
        0.0017389122012200001,
        6814878.9604599997,
        0.0028035856203599998,
        8217125.1612699991,
        0.0041232215178399999,
        9634045.28211,
        0.00570172247321,
        11065949.6865,
        0.0075432137557199996,
        12513158.690099999,
        0.0096519279901600002,
# ... 180 like lines cut
    ),
)
EP = DEFI_FONCTION(
    NOM_PARA="PCAP",
    INTERPOL="LIN",
    PROL_DROITE="CONSTANT",
    PROL_GAUCHE="CONSTANT",
    VALE=(
        0.0,
        2.1157448799100001e-09,
        1346752.1237899999,
        1.2463953952400001e-09,
        2693221.0965899997,
        1.1154104475299999e-09,
        4053214.1968899998,
        1.0381524858000001e-09,
        5427005.8600400006,
        9.8298766104800005e-10,
        6814878.9604599997,
        9.3994844319800011e-10,
        8217125.1612699991,
        9.0458425505300007e-10,
        9634045.28211,
        8.7451760630500002e-10,
        11065949.6865,
        8.4832795391600007e-10,
        12513158.690099999,
        8.2509834417900002e-10,
# ... 180 like lines cut
    ),
)


UN = DEFI_CONSTANTE(VALE=1.0)
ZERO = DEFI_CONSTANTE(VALE=0.0)


SITOT = 0.0
SIPbet = Sipinit_de_PcPg(BIOCOQ, SINI, PGZ0, PC0)
SIEFbet = SITOT - SIPbet

BETON = DEFI_MATERIAU(
    COMP_THM="LIQU_AD_GAZ",
    ELAS=_F(ALPHA=1e-05, E=Ebet, NU=Nu),
    THM_AIR_DISS=_F(COEF_HENRY=KHENRY, CP=1000.0),
    THM_DIFFU=_F(
        BIOT_COEF=BIOCOQ,
        CP=815,
        FICKA_S=ZERO,
        FICKA_T=ZERO,
        FICKV_S=ZERO,
        FICKV_T=ZERO,
        PERM_IN=KINT,
        PESA_X=0.0,
        PESA_Y=0.0,
        PESA_Z=0.0,
        RHO=RHOH,
        R_GAZ=8.315,
        EPAI=EP,
        A0=64395000,
        SHUTTLE=0.0,
        S_BJH=SBJH,
        W_BJH=wBJH,
        SATU_PRES=SATUB0,
        D_SATU_PRES=DSATBO,
        PERM_LIQU=PKL,
        D_PERM_LIQU_SATU=PDKL,
        PERM_GAZ=PKG,
        D_PERM_SATU_GAZ=PDKG,
        D_PERM_PRES_GAZ=ZERO,
    ),
    THM_GAZ=_F(CP=1000.0, D_VISC_TEMP=ZERO, MASS_MOL=0.028, VISC=VISCOGAZ),
    THM_INIT=_F(PORO=poro_coq, PRE1=0.0, PRE2=P2REF, TEMP=TREF),
    THM_LIQU=_F(
        ALPHA=ALPHAL, CP=4180.0, D_VISC_TEMP=ZERO, RHO=RHOW, UN_SUR_K=4.5e-10, VISC=VISCOLIQ
    ),
    THM_VAPE_GAZ=_F(CP=1870.0, D_VISC_TEMP=ZERO, MASS_MOL=0.018, VISC=VISCOGAZ),
)

fieldmat = AFFE_MATERIAU(AFFE=_F(MATER=(BETON,), TOUT="OUI"), MAILLAGE=mesh)

model1 = AFFE_MODELE(
    AFFE=_F(MODELISATION=("D_PLAN_THH2MS",), PHENOMENE="MECANIQUE", TOUT="OUI"), MAILLAGE=mesh
)

model2 = AFFE_MODELE(
    AFFE=_F(MODELISATION=("D_PLAN_THH2MD",), PHENOMENE="MECANIQUE", TOUT="OUI"), MAILLAGE=mesh
)


DEPL0 = CREA_CHAMP(
    AFFE=(
        _F(NOM_CMP=("PRE1",), TOUT="OUI", VALE=(PC0,)),
        _F(NOM_CMP=("PRE2",), TOUT="OUI", VALE=(P20,)),
    ),
    MAILLAGE=mesh,
    OPERATION="AFFE",
    TYPE_CHAM="NOEU_DEPL_R",
)

SIG01 = CREA_CHAMP(
    AFFE=_F(
        NOM_CMP=(
            "SIXX",
            "SIYY",
            "SIZZ",
            "SIPXX",
            "SIPYY",
            "SIPZZ",
            "SIXY",
            "SIXZ",
            "SIYZ",
            "SIPXY",
            "SIPXZ",
            "SIPYZ",
            "M11",
            "FH11X",
            "FH11Y",
            "M12",
            "FH12X",
            "FH12Y",
            "M21",
            "FH21X",
            "FH21Y",
            "M22",
            "FH22X",
            "FH22Y",
        ),
        TOUT="OUI",
        VALE=(
            0.0,
            0.0,
            0.0,
            0.0,
            0.0,
            0.0,
            0.0,
            0.0,
            0.0,
            0.0,
            0.0,
            0.0,
            0.0,
            0.0,
            0.0,
            0.0,
            0.0,
            0.0,
            0.0,
            0.0,
# ... 4 like lines cut
        ),
    ),
    MODELE=model1,
    OPERATION="AFFE",
    PROL_ZERO="OUI",
    TYPE_CHAM="ELGA_SIEF_R",
)

SIG02 = CREA_CHAMP(
    AFFE=_F(
        NOM_CMP=(
            "SIXX",
            "SIYY",
            "SIZZ",
            "SIPXX",
            "SIPYY",
            "SIPZZ",
            "SIXY",
            "SIXZ",
            "SIYZ",
            "SIPXY",
            "SIPXZ",
            "SIPYZ",
            "M11",
            "FH11X",
            "FH11Y",
            "M12",
            "FH12X",
            "FH12Y",
            "M21",
            "FH21X",
            "FH21Y",
            "M22",
            "FH22X",
            "FH22Y",
        ),
        TOUT="OUI",
        VALE=(
            0.0,
            0.0,
            0.0,
            0.0,
            0.0,
            0.0,
            0.0,
            0.0,
            0.0,
            0.0,
            0.0,
            0.0,
            0.0,
            0.0,
            0.0,
            0.0,
            0.0,
            0.0,
            0.0,
            0.0,
# ... 4 like lines cut
        ),
    ),
    MODELE=model2,
    OPERATION="AFFE",
    PROL_ZERO="OUI",
    TYPE_CHAM="ELGA_SIEF_R",
)
############## CHARGEMENT
HR1 = 0.804
PCHYGRO1 = -RHOW * R * (TREF + TINI) / MAMOLVAP * log(HR1)


SECH1 = AFFE_CHAR_CINE(
    MODELE=model1,
    MECA_IMPO=(_F(GROUP_MA=("GAUCHE",), PRE1=PCHYGRO1), _F(GROUP_MA=("GAUCHE"), PRE2=P20)),
)

CHARGE1 = AFFE_CHAR_CINE(
    MECA_IMPO=(_F(DY=0.0, GROUP_MA="BAS"), _F(DX=0.0, GROUP_MA="DROITE")), MODELE=model1
)

SECH2 = AFFE_CHAR_CINE(
    MODELE=model2,
    MECA_IMPO=(_F(GROUP_MA=("GAUCHE",), PRE1=PCHYGRO1), _F(GROUP_MA=("GAUCHE"), PRE2=P20)),
)

CHARGE2 = AFFE_CHAR_CINE(
    MECA_IMPO=(_F(DY=0.0, GROUP_MA="BAS"), _F(DX=0.0, GROUP_MA="DROITE")), MODELE=model2
)
############## Calcul pour HR = 0.804 avec THH2MS

RESU1 = MECA_NON_LINE(
    CHAM_MATER=fieldmat,
    COMPORTEMENT=_F(
        RELATION="KIT_THH2M", RELATION_KIT=("HYDR_TABBAL", "LIQU_AD_GAZ", "ELAS"), TOUT="OUI"
    ),
    CONVERGENCE=_F(ITER_GLOB_MAXI=50, RESI_GLOB_RELA=1.0e-6),
    SOLVEUR=_F(METHODE="MUMPS"),
    ETAT_INIT=_F(DEPL=DEPL0, SIGM=SIG01),
    EXCIT=(_F(CHARGE=CHARGE1), _F(CHARGE=SECH1)),
    INCREMENT=_F(LIST_INST=INST, INST_FIN=TFIN),
    METHODE="NEWTON",
    MODELE=model1,
    NEWTON=_F(),
)

############## Calcul pour HR = 0.804 avec THH2MD

RESU2 = MECA_NON_LINE(
    CHAM_MATER=fieldmat,
    COMPORTEMENT=_F(
        RELATION="KIT_THH2M", RELATION_KIT=("HYDR_TABBAL", "LIQU_AD_GAZ", "ELAS"), TOUT="OUI"
    ),
    CONVERGENCE=_F(ITER_GLOB_MAXI=50, RESI_GLOB_RELA=1.0e-6),
    SOLVEUR=_F(METHODE="MUMPS"),
    ETAT_INIT=_F(DEPL=DEPL0, SIGM=SIG02),
    EXCIT=(_F(CHARGE=CHARGE2), _F(CHARGE=SECH2)),
    INCREMENT=_F(LIST_INST=TIMES, INST_FIN=TFIN),
    METHODE="NEWTON",
    MODELE=model2,
    NEWTON=_F(),
)

##########################################################################################################################
### Calcul des champs de deformations et contraintes
##########################################################################################################################

RESU1 = CALC_CHAMP(
    reuse=RESU1,
    DEFORMATION=("EPSI_ELGA"),
    RESULTAT=RESU1,
    CONTRAINTE="SIEF_NOEU",
    VARI_INTERNE="VARI_NOEU",
)
RESU2 = CALC_CHAMP(
    reuse=RESU2,
    DEFORMATION=("EPSI_ELGA"),
    RESULTAT=RESU2,
    CONTRAINTE="SIEF_NOEU",
    VARI_INTERNE="VARI_NOEU",
)


##########################################################################################################################
### Impression des resultats
##########################################################################################################################


CONVJ = FORMULE(NOM_PARA=("INST"), VALE="INST/(86400)")

#

res = [RESU1, RESU2]
mod = [model1, model2]
val_ref = [-7950000, -7950000.0]
val_cal = [-7258164.112759329, -7258164.1630398035]

for i in range(2):

    r = res[i]
    m = mod[i]
    #
    DEFOR = POST_ELEM(
        INTEGRALE=_F(GROUP_MA=("BETON"), NOM_CHAM="EPSI_ELGA", NOM_CMP=("EPXX",), TYPE_MAILLE="2D"),
        MODELE=m,
        RESULTAT=r,
    )
    SIG = POST_RELEVE_T(
        ACTION=_F(
            OPERATION="EXTRACTION",
            INTITULE="SIEF_NOEU",
            RESULTAT=r,
            NOM_CHAM="SIEF_NOEU",
            NOEUD="N1",
            NOM_CMP=("SIXX",),
        )
    )
    TDS = CALC_TABLE(TABLE=DEFOR, ACTION=_F(OPERATION="COMB", TABLE=SIG))
    TAB_DS = CALC_TABLE(TABLE=TDS, ACTION=(_F(OPERATION="OPER", FORMULE=CONVJ, NOM_PARA="INST2"),))
    IMPR_TABLE(TABLE=TAB_DS, NOM_PARA=("INST2", "MOYE_EPXX", "SIXX"))

    TEST_RESU(
        RESU=_F(
            INST=TFIN,
            RESULTAT=r,
            NOM_CHAM="SIEF_NOEU",
            GROUP_NO="C",
            NOM_CMP="SIXX",
            REFERENCE="ANALYTIQUE",
            VALE_CALC=val_cal[i],
            VALE_REFE=val_ref[i],
            CRITERE="RELATIF",
            PRECISION=0.1,
        )
    )
    DETRUIRE(CONCEPT=(_F(NOM=DEFOR), _F(NOM=SIG), _F(NOM=TDS), _F(NOM=TAB_DS)))

FIN()
