# coding=utf-8
# --------------------------------------------------------------------
# Copyright (C) 1991 - 2025 - EDF R&D - www.code-aster.org
# This file is part of code_aster.
#
# code_aster is free software: you can redistribute it and/or modify
# it under the terms of the GNU General Public License as published by
# the Free Software Foundation, either version 3 of the License, or
# (at your option) any later version.
#
# code_aster is distributed in the hope that it will be useful,
# but WITHOUT ANY WARRANTY; without even the implied warranty of
# MERCHANTABILITY or FITNESS FOR A PARTICULAR PURPOSE.  See the
# GNU General Public License for more details.
#
# You should have received a copy of the GNU General Public License
# along with code_aster.  If not, see <http://www.gnu.org/licenses/>.
# --------------------------------------------------------------------

#            INJECTION DE GAZ DANS UN BARREAU SATURE EN EAU PURE
#
#
DEBUT(CODE="OUI", DEBUG=_F(SDVERI="OUI"))
# =============================================================
# =============================================================
METHODE = "VFDA"
# =============================================================
# =============================================================

MODELISA = "D_PLAN_HH2SUDA"
LOI = "LIQU_AD_GAZ"
NOEUD_G = "N603"


# =============================================================
#                     DONNEES
# =============================================================
PARM_ALPHA = 1.0

UN_SUR_K = 1.0e-20


# *********************************************************
# COEFFICIENTS DE VAN-GENUCHTEN :
# *********************************************************
N = 1.49
PR = 2.0e6
SR = 0.4
SMAX = 0.999
SATUC = 1.0

# *********************************************************
# CI
# *********************************************************
PREF = 1.0
PLIQ0 = 1.0e6
PC0 = PREF - PLIQ0

# *********************************************************
# CL
# *********************************************************
T1JOUR = 86400
UNMOIS = 2.592e6
T1ANS = 3.1536e7
T10ANS = 3.1536e8
T50ANS = 1.5768e09
T100ANS = 3.1536e9
T500ANS = 1.5768e10
T1000ANS = 3.1536e10
T1500ANS = 4.73364e10
T2000ANS = 2 * T1000ANS
T5000ANS = 1.5768e11
T8000ANS = 8 * T1000ANS
T10_000ANS = 3.1536e11
T20_000ANS = 2 * T10_000ANS
T40_000ANS = 4 * T10_000ANS
T60_000ANS = 6 * T10_000ANS
T100_000ANS = 3.1536e12
T200_000ANS = 2 * T100_000ANS
T400_000ANS = 4 * T100_000ANS
T500_000ANS = 1.5768e13
TMILLION = 3.1536e13

# TINJ=T500_000ANS
# FINJ=1.629360000E+13
# TSIM=TMILLION
# TFIN=TMILLION


TINJ = T10_000ANS

TFIN = T10_000ANS


LISPOST = DEFI_LIST_REEL(
    VALE=(
        T1ANS,
        T10ANS,
        T100ANS,
        T1000ANS,
        T10_000ANS,
        #          T100_000ANS,
        #          T500_000ANS,
        #          TMILLION,
    )
)

UN = DEFI_CONSTANTE(VALE=1.0)
ZERO = DEFI_CONSTANTE(VALE=0.0)

VISCOLIQ = DEFI_CONSTANTE(VALE=1.0e-3)
VISCOGAZ = DEFI_CONSTANTE(VALE=9.0e-06)

DVISCOL = DEFI_CONSTANTE(VALE=0.0)
DVISCOG = DEFI_CONSTANTE(VALE=0.0)

HENRY = DEFI_CONSTANTE(VALE=130719.0)

KINT = DEFI_CONSTANTE(VALE=5.0e-20)

FICKWAR = DEFI_CONSTANTE(VALE=0.45e-9)
FLUGAZ = 5.57e-6 / (365.0 * 24.0 * 3600.0)  # FLUGAZ=1.766E-13KG.M^2.S^-1

# *********************************************************
# CRITERES DE CONVERGENCE
# *********************************************************
#
RESI_GLOB_RELA = 1.0e-05
ITER_GLOB_MAXI = 10

FLUXG = DEFI_FONCTION(
    NOM_PARA="INST",
    VALE=(
        0.0,
        FLUGAZ,
        TINJ,
        FLUGAZ,
        #   FINJ             ,  0. ,
        #   TSIM             ,  0. ,
    ),
    PROL_DROITE="EXCLU",
    PROL_GAUCHE="EXCLU",
)

# ================================
# FICK DANS LE MELANGE LIQUIDE
# ================================
LI2 = DEFI_LIST_REEL(DEBUT=0.4, INTERVALLE=(_F(JUSQU_A=0.99999, NOMBRE=2000),))


# ================================
# SATURATION DU LIQUIDE
# ================================
FFAS = FORMULE(VALE="SAT", NOM_PARA="SAT")

FAS = CALC_FONC_INTERP(
    FONCTION=FFAS,
    LIST_PARA=LI2,
    NOM_PARA="SAT",
    PROL_GAUCHE="CONSTANT",
    PROL_DROITE="CONSTANT",
    INFO=2,
)

#
#
# *************************************************************
# LISTE DES INSTANTS DE CALCULS
# *************************************************************
#
INST1 = DEFI_LIST_REEL(
    DEBUT=0.0,
    INTERVALLE=(
        _F(JUSQU_A=86400, NOMBRE=1),  # DT=1J
        _F(JUSQU_A=864000, NOMBRE=9),  # DT=1J
        _F(JUSQU_A=T1ANS, NOMBRE=10),  # DT=0.1 AN
        _F(JUSQU_A=T10ANS, NOMBRE=10),  # DT=0.9 AN
        _F(JUSQU_A=6.3072e08, NOMBRE=10),  # DT=1 AN
        _F(JUSQU_A=9.4608e08, NOMBRE=10),  # DT=1 AN
        _F(JUSQU_A=1.2614e09, NOMBRE=10),  # DT=1 AN
        _F(JUSQU_A=T50ANS, NOMBRE=5),  # DT=2 AN
        _F(JUSQU_A=1.8922e09, NOMBRE=5),  # DT=2 AN
        _F(JUSQU_A=T100ANS, NOMBRE=10),  # DT=4 AN
        _F(JUSQU_A=6.3072e09, NOMBRE=24),  # DT=5 AN
        _F(JUSQU_A=9.4608e09, NOMBRE=20),  # DT=5 AN
        _F(JUSQU_A=T500ANS, NOMBRE=20),  # DT=10 AN
        _F(JUSQU_A=T1000ANS, NOMBRE=20),  # DT=25 ANS
        _F(JUSQU_A=T1500ANS, NOMBRE=10),  # DT=50 ANS
        _F(JUSQU_A=T2000ANS, NOMBRE=5),  # DT=100 ANS
        _F(JUSQU_A=T5000ANS, NOMBRE=15),  # DT=200 ANS
        _F(JUSQU_A=T8000ANS, NOMBRE=10),  # DT=300 ANS
        _F(JUSQU_A=T10_000ANS, NOMBRE=5),  # DT=400 ANS
        _F(JUSQU_A=T20_000ANS, NOMBRE=20),  # DT=500 ANS
        _F(JUSQU_A=T40_000ANS, NOMBRE=32),  # DT=625 ANS
        _F(JUSQU_A=T60_000ANS, NOMBRE=25),  # DT=800 ANS
        _F(JUSQU_A=T100_000ANS, NOMBRE=40),  # DT=1000 ANS
        _F(JUSQU_A=T200_000ANS, NOMBRE=50),  # DT=2000 ANS
        _F(JUSQU_A=T400_000ANS, NOMBRE=40),  # DT=5000 ANS
        _F(JUSQU_A=T500_000ANS, NOMBRE=20),  # DT=15000 ANS
        _F(JUSQU_A=TMILLION, NOMBRE=30),  # DT=16666 ANS
    ),
)

LI = DEFI_LIST_INST(
    DEFI_LIST=_F(LIST_INST=INST1),
    ECHEC=_F(ACTION="DECOUPE", SUBD_METHODE="MANUEL", SUBD_PAS=5, SUBD_PAS_MINI=0.1),
)
# =============================================================
# =============================================================
# =============================================================

# *********************
# LECTURE DU MAILLAGE
# *********************


MAILINI = LIRE_MAILLAGE(FORMAT="MED")
MAIL = CREA_MAILLAGE(MAILLAGE=MAILINI, MODI_MAILLE=(_F(TOUT="OUI", OPTION="QUAD8_9"),))

MAIL = DEFI_GROUP(
    reuse=MAIL,
    MAILLAGE=MAIL,
    CREA_GROUP_NO=(
        _F(GROUP_MA="BAS", NOM="NSBAS", CRIT_NOEUD="MILIEU"),
        _F(GROUP_MA="HAUT"),
        _F(GROUP_MA="GAUCHE"),
        _F(GROUP_MA="DROIT"),
        _F(GROUP_MA="TOUT"),
        _F(NOM="N678", NOEUD="N678"),
        _F(NOM="NQ182", NOEUD="N1185"),
        _F(NOM="N783", NOEUD="N783"),
        _F(NOM="NQ21", NOEUD="N1024"),
        _F(NOM="N727", NOEUD="N727"),
        _F(NOM="NQ25", NOEUD="N1028"),
        _F(
            NOM="MIL",
            NOEUD=(
                "N603",
                "N404",
                "N804",
                "N805",
                "N806",
                "N807",
                "N808",
                "N809",
                "N810",
                "N811",
                "N812",
                "N813",
                "N814",
                "N815",
                "N816",
                "N817",
                "N818",
                "N819",
                "N820",
                "N821",
# ... 182 like lines cut
            ),
        ),
    ),
)


# *********************************************************
# MODELE DE CALCUL
# *********************************************************
#
MODELE = AFFE_MODELE(
    MAILLAGE=MAIL, AFFE=_F(TOUT="OUI", PHENOMENE="MECANIQUE", MODELISATION=MODELISA)
)


MATER = DEFI_MATERIAU(
    ELAS=_F(E=5.15e8, NU=0.20, RHO=2670.0, ALPHA=0.0),
    COMP_THM=LOI,
    THM_LIQU=_F(RHO=1000.0, UN_SUR_K=0.0, VISC=VISCOLIQ, D_VISC_TEMP=DVISCOL),
    THM_GAZ=_F(MASS_MOL=0.002, CP=1017.0, VISC=VISCOGAZ, D_VISC_TEMP=ZERO),
    THM_VAPE_GAZ=_F(MASS_MOL=0.0001, CP=1900.0, VISC=VISCOGAZ, D_VISC_TEMP=ZERO),
    THM_AIR_DISS=_F(CP=0.0, COEF_HENRY=HENRY),
    THM_INIT=_F(TEMP=303.0, PRE1=0.0, PRE2=PREF, PORO=0.15, PRES_VAPE=0.1),
    THM_DIFFU=_F(
        R_GAZ=8.315,
        RHO=2200.0,
        CP=1050.0,
        BIOT_L=1.0,
        BIOT_T=1.0,
        BIOT_N=1.0,
        PESA_X=0.0,
        PESA_Y=0.0,
        PESA_Z=0.0,
        PERMIN_L=KINT,
        PERMIN_T=ZERO,
        VG_N=N,
        VG_PR=PR,
        VG_SR=SR,
        VG_SMAX=SMAX,
        VG_SATUR=SATUC,
        FICKV_T=ZERO,
        FICKA_T=FICKWAR,
        FICKA_S=FAS,
        LAMB_TL=ZERO,
        LAMB_TT=ZERO,
    ),
)
# ****************************************************************
# AFFECTATION DES MATERIAUX
# ****************************************************************
#
CHMAT0 = AFFE_MATERIAU(MAILLAGE=MAIL, AFFE=(_F(GROUP_MA="TOUT", MATER=MATER),))

# *************************************************************
# AFFECTATION DE L ETAT INITIAL
# *************************************************************
#

CHAMNO = CREA_CHAMP(
    MAILLAGE=MAIL,
    OPERATION="AFFE",
    TYPE_CHAM="NOEU_DEPL_R",
    AFFE=(
        _F(GROUP_NO="TOUT", NOM_CMP="PRE1", VALE=PC0),
        _F(GROUP_NO="TOUT", NOM_CMP="PRE2", VALE=0.0),
    ),
)


# *************************************************************
# AFFECTATION DES CL
# *************************************************************
#

CHG = AFFE_CHAR_MECA(MODELE=MODELE, FLUX_THM_REP=_F(GROUP_MA="GAUCHE", FLUN_HYDR2=1.0))


CHIMP = AFFE_CHAR_MECA(
    MODELE=MODELE, DDL_IMPO=(_F(GROUP_MA="DROIT", PRE1=PC0), _F(GROUP_MA="DROIT", PRE2=0.0))
)


#
#
# *************************************************************
#     STAT NON LINE
# *************************************************************
#

U0 = STAT_NON_LINE(
    MODELE=MODELE,
    CHAM_MATER=CHMAT0,
    EXCIT=(_F(CHARGE=CHIMP), _F(CHARGE=CHG, FONC_MULT=FLUXG)),
    SCHEMA_THM=_F(PARM_THETA=1.0, PARM_ALPHA=PARM_ALPHA),
    COMPORTEMENT=_F(RELATION="KIT_HH2", ITER_INTE_MAXI=5, RELATION_KIT=(LOI, "HYDR_VGM")),
    ETAT_INIT=_F(DEPL=CHAMNO),
    INCREMENT=_F(LIST_INST=LI, INST_FIN=TFIN),
    NEWTON=_F(MATRICE="TANGENTE", REAC_ITER=1),
    CONVERGENCE=_F(RESI_GLOB_RELA=RESI_GLOB_RELA, ITER_GLOB_MAXI=ITER_GLOB_MAXI),
    SOLVEUR=_F(METHODE="MUMPS"),
    OBSERVATION=(_F(NOM_CHAM="DEPL", NOM_CMP=("PRE1", "PRE2"), PAS_OBSE=1, NOEUD=NOEUD_G)),
)

# *************************************************************
# IMPRESSIONS
# *************************************************************


PR1_BAS = POST_RELEVE_T(
    ACTION=_F(
        INTITULE="DEPL",
        GROUP_NO=("NSBAS"),
        RESULTAT=U0,
        NOM_CHAM="DEPL",
        LIST_INST=LISPOST,
        NOM_CMP=("PRE1"),
        OPERATION="EXTRACTION",
    )
)

IMPR_TABLE(
    TABLE=PR1_BAS,
    FORMAT="TABLEAU_CROISE",
    NOM_PARA=("INST", "COOR_X", "PRE1"),
    TRI=(_F(NOM_PARA=("COOR_X"), ORDRE="CROISSANT")),
)


PR2_BAS = POST_RELEVE_T(
    ACTION=_F(
        INTITULE="DEPL",
        GROUP_NO=("NSBAS"),
        RESULTAT=U0,
        NOM_CHAM="DEPL",
        LIST_INST=LISPOST,
        NOM_CMP=("PRE2"),
        OPERATION="EXTRACTION",
    )
)
IMPR_TABLE(
    TABLE=PR2_BAS,
    FORMAT="TABLEAU_CROISE",
    NOM_PARA=("INST", "COOR_X", "PRE2"),
    TRI=(_F(NOM_PARA=("COOR_X"), ORDRE="CROISSANT")),
)


# =================PC======================

# ------ N678----------------------------
TEST_RESU(
    RESU=_F(
        INST=3.1536000e7,
        REFERENCE="NON_DEFINI",
        RESULTAT=U0,
        NOM_CHAM="DEPL",
        GROUP_NO="N678",
        NOM_CMP="PRE1",
        VALE_CALC=-9.97840106e05,
        VALE_REFE=-9.97840e5,
        CRITERE="RELATIF",
        PRECISION=1.0e-2,
    )
)

TEST_RESU(
    RESU=_F(
        INST=3.1536000000e10,
        REFERENCE="NON_DEFINI",
        RESULTAT=U0,
        NOM_CHAM="DEPL",
        GROUP_NO="N678",
        NOM_CMP="PRE1",
        VALE_CALC=-7.34391460e05,
        VALE_REFE=-7.34375e5,
        CRITERE="RELATIF",
        PRECISION=1.0e-2,
    )
)

# =================PG======================
# ------ N678----------------------------
TEST_RESU(
    RESU=_F(
        INST=3.1536000e7,
        REFERENCE="NON_DEFINI",
        RESULTAT=U0,
        NOM_CHAM="DEPL",
        GROUP_NO="N678",
        NOM_CMP="PRE2",
        VALE_CALC=2.30612936e03,
        VALE_REFE=2306.1300000000001,
        CRITERE="RELATIF",
        PRECISION=1.0e-2,
    )
)

TEST_RESU(
    RESU=_F(
        INST=3.1536000000e10,
        REFERENCE="NON_DEFINI",
        RESULTAT=U0,
        NOM_CHAM="DEPL",
        GROUP_NO="N678",
        NOM_CMP="PRE2",
        VALE_CALC=2.67431602e05,
        VALE_REFE=2.67448e5,
        CRITERE="RELATIF",
        PRECISION=1.0e-2,
    )
)

# =================PC======================
# ------ NQ182----------------------------
TEST_RESU(
    RESU=_F(
        INST=3.1536000e7,
        REFERENCE="NON_DEFINI",
        RESULTAT=U0,
        NOM_CHAM="DEPL",
        GROUP_NO="NQ182",
        NOM_CMP="PRE1",
        VALE_CALC=-9.97840106e05,
        VALE_REFE=-9.97840e5,
        CRITERE="RELATIF",
        PRECISION=1.0e-2,
    )
)

TEST_RESU(
    RESU=_F(
        INST=3.1536000000e10,
        REFERENCE="NON_DEFINI",
        RESULTAT=U0,
        NOM_CHAM="DEPL",
        GROUP_NO="NQ182",
        NOM_CMP="PRE1",
        VALE_CALC=-7.34391460e05,
        VALE_REFE=-7.34375e5,
        CRITERE="RELATIF",
        PRECISION=1.0e-2,
    )
)

# =================PG======================
# ------ NQ182----------------------------
TEST_RESU(
    RESU=_F(
        INST=3.1536000e7,
        REFERENCE="NON_DEFINI",
        RESULTAT=U0,
        NOM_CHAM="DEPL",
        GROUP_NO="NQ182",
        NOM_CMP="PRE2",
        VALE_CALC=2.30612936e03,
        VALE_REFE=2306.1300000000001,
        CRITERE="RELATIF",
        PRECISION=1.0e-2,
    )
)

TEST_RESU(
    RESU=_F(
        INST=3.1536000000e10,
        REFERENCE="NON_DEFINI",
        RESULTAT=U0,
        NOM_CHAM="DEPL",
        GROUP_NO="NQ182",
        NOM_CMP="PRE2",
        VALE_CALC=2.67431602e05,
        VALE_REFE=2.67448e5,
        CRITERE="RELATIF",
        PRECISION=1.0e-2,
    )
)

# =================PC======================
# ------ N783----------------------------
TEST_RESU(
    RESU=_F(
        INST=3.1536000e7,
        REFERENCE="NON_DEFINI",
        RESULTAT=U0,
        NOM_CHAM="DEPL",
        GROUP_NO="N783",
        NOM_CMP="PRE1",
        VALE_CALC=-9.99999022e05,
        VALE_REFE=-9.99999e5,
        CRITERE="RELATIF",
        PRECISION=1.0e-2,
    )
)

TEST_RESU(
    RESU=_F(
        INST=3.1536000000e10,
        REFERENCE="NON_DEFINI",
        RESULTAT=U0,
        NOM_CHAM="DEPL",
        GROUP_NO="N783",
        NOM_CMP="PRE1",
        VALE_CALC=-1.00096044e06,
        VALE_REFE=-1.000960e6,
        CRITERE="RELATIF",
        PRECISION=1.0e-2,
    )
)

# =================PG======================
# ------ N783----------------------------
TEST_RESU(
    RESU=_F(
        INST=3.1536000e7,
        RESULTAT=U0,
        NOM_CHAM="DEPL",
        GROUP_NO="N783",
        NOM_CMP="PRE2",
        VALE_CALC=9.9999999999999994e-12,
        CRITERE="ABSOLU",
    )
)

TEST_RESU(
    RESU=_F(
        INST=3.1536000000e10,
        REFERENCE="NON_DEFINI",
        RESULTAT=U0,
        NOM_CHAM="DEPL",
        GROUP_NO="N783",
        NOM_CMP="PRE2",
        VALE_CALC=3.07501731e-06,
        VALE_REFE=3.0897900000000002e-06,
        CRITERE="RELATIF",
        PRECISION=1.0e-2,
    )
)

# =================PC======================
# ------ NQ21----------------------------
TEST_RESU(
    RESU=_F(
        INST=3.1536000e7,
        REFERENCE="NON_DEFINI",
        RESULTAT=U0,
        NOM_CHAM="DEPL",
        GROUP_NO="NQ21",
        NOM_CMP="PRE1",
        VALE_CALC=-9.99999022e05,
        VALE_REFE=-9.99999e5,
        CRITERE="RELATIF",
        PRECISION=1.0e-2,
    )
)

TEST_RESU(
    RESU=_F(
        INST=3.1536000000e10,
        REFERENCE="NON_DEFINI",
        RESULTAT=U0,
        NOM_CHAM="DEPL",
        GROUP_NO="NQ21",
        NOM_CMP="PRE1",
        VALE_CALC=-1.00096044e06,
        VALE_REFE=-1.000960e6,
        CRITERE="RELATIF",
        PRECISION=1.0e-2,
    )
)

# =================PG======================
# ------ NQ21----------------------------
TEST_RESU(
    RESU=_F(
        INST=3.1536000e7,
        RESULTAT=U0,
        NOM_CHAM="DEPL",
        GROUP_NO="NQ21",
        NOM_CMP="PRE2",
        VALE_CALC=9.9999999999999994e-12,
        CRITERE="ABSOLU",
    )
)

TEST_RESU(
    RESU=_F(
        INST=3.1536000000e10,
        REFERENCE="NON_DEFINI",
        RESULTAT=U0,
        NOM_CHAM="DEPL",
        GROUP_NO="NQ21",
        NOM_CMP="PRE2",
        VALE_CALC=3.07501731e-06,
        VALE_REFE=3.0897900000000002e-06,
        CRITERE="RELATIF",
        PRECISION=1.0e-2,
    )
)

# =================PC======================
# ------ N727----------------------------
TEST_RESU(
    RESU=_F(
        INST=3.1536000e7,
        REFERENCE="NON_DEFINI",
        RESULTAT=U0,
        NOM_CHAM="DEPL",
        GROUP_NO="N727",
        NOM_CMP="PRE1",
        VALE_CALC=-9.99999000e05,
        VALE_REFE=-9.99999e5,
        CRITERE="RELATIF",
        PRECISION=1.0e-2,
    )
)

TEST_RESU(
    RESU=_F(
        INST=3.1536000000e10,
        REFERENCE="NON_DEFINI",
        RESULTAT=U0,
        NOM_CHAM="DEPL",
        GROUP_NO="N727",
        NOM_CMP="PRE1",
        VALE_CALC=-1.00008981e06,
        VALE_REFE=-1.000090e6,
        CRITERE="RELATIF",
        PRECISION=1.0e-2,
    )
)

# =================PG======================
# ------ N727----------------------------
TEST_RESU(
    RESU=_F(
        INST=3.1536000e7,
        RESULTAT=U0,
        NOM_CHAM="DEPL",
        GROUP_NO="N727",
        NOM_CMP="PRE2",
        VALE_CALC=9.9999999999999998e-17,
        CRITERE="ABSOLU",
    )
)

TEST_RESU(
    RESU=_F(
        INST=3.1536000000e10,
        REFERENCE="NON_DEFINI",
        RESULTAT=U0,
        NOM_CHAM="DEPL",
        GROUP_NO="N727",
        NOM_CMP="PRE2",
        VALE_CALC=1.52133098e-07,
        VALE_REFE=1.5213600000000001e-07,
        CRITERE="RELATIF",
        PRECISION=1.0e-2,
    )
)

# =================PC======================
# ------ NQ25----------------------------
TEST_RESU(
    RESU=_F(
        INST=3.1536000e7,
        REFERENCE="NON_DEFINI",
        RESULTAT=U0,
        NOM_CHAM="DEPL",
        GROUP_NO="NQ25",
        NOM_CMP="PRE1",
        VALE_CALC=-9.99999000e05,
        VALE_REFE=-9.99999e5,
        CRITERE="RELATIF",
        PRECISION=1.0e-2,
    )
)

TEST_RESU(
    RESU=_F(
        INST=3.1536000000e10,
        REFERENCE="NON_DEFINI",
        RESULTAT=U0,
        NOM_CHAM="DEPL",
        GROUP_NO="NQ25",
        NOM_CMP="PRE1",
        VALE_CALC=-1.00008981e06,
        VALE_REFE=-1.000090e6,
        CRITERE="RELATIF",
        PRECISION=1.0e-2,
    )
)

# =================PG======================
# ------ NQ25----------------------------
TEST_RESU(
    RESU=_F(
        INST=3.1536000e7,
        RESULTAT=U0,
        NOM_CHAM="DEPL",
        GROUP_NO="NQ25",
        NOM_CMP="PRE2",
        VALE_CALC=9.9999999999999998e-17,
        CRITERE="ABSOLU",
    )
)

TEST_RESU(
    RESU=_F(
        INST=3.1536000000e10,
        REFERENCE="NON_DEFINI",
        RESULTAT=U0,
        NOM_CHAM="DEPL",
        GROUP_NO="NQ25",
        NOM_CMP="PRE2",
        VALE_CALC=1.52133098e-07,
        VALE_REFE=1.5213600000000001e-07,
        CRITERE="RELATIF",
        PRECISION=1.0e-2,
    )
)

FIN()
