 TITRE
CODE_ASTER - 11.00.27 - VERSION DE DEVELOPPEMENT          - FRONTAL1         - L
 FINSF
 %
 COOR_3D
 N1       -5.00000000000000E-01 -5.00000000000000E-01 -5.00000000000000E-01
 N2        5.00000000000000E-01 -5.00000000000000E-01 -5.00000000000000E-01
 N3        5.00000000000000E-01  5.00000000000000E-01 -5.00000000000000E-01
 N4       -5.00000000000000E-01  5.00000000000000E-01 -5.00000000000000E-01
 N5       -5.00000000000000E-01 -5.00000000000000E-01  5.00000000000000E-01
 N6        5.00000000000000E-01 -5.00000000000000E-01  5.00000000000000E-01
 N7        5.00000000000000E-01  5.00000000000000E-01  5.00000000000000E-01
 N8       -5.00000000000000E-01  5.00000000000000E-01  5.00000000000000E-01
 N9        0.00000000000000E+00  0.00000000000000E+00  0.00000000000000E+00
 FINSF
 %
 QUAD4   
 M9       N1       N2       N3       N4      
 M10      N5       N6       N7       N8      
 FINSF
 %
 PYRAM5  
 M11      N1       N2       N3       N4       N9      
 M12      N2       N3       N7       N6       N9      
 M13      N3       N4       N8       N7       N9      
 M14      N4       N1       N5       N8       N9      
 M15      N1       N2       N6       N5       N9      
 M16      N8       N7       N6       N5       N9      
 FINSF
 %
 GROUP_NO
 N3                      
 N3      
 FINSF
 %
 GROUP_NO
 N2                      
 N2      
 FINSF
 %
 GROUP_NO
 N8                      
 N8      
 FINSF
 %
 GROUP_NO
 N1                      
 N1      
 FINSF
 %
 GROUP_NO
 N5                      
 N5      
 FINSF
 %
 GROUP_NO
 N7                      
 N7      
 FINSF
 %
 GROUP_NO
 N4                      
 N4      
 FINSF
 %
 GROUP_NO
 N6                      
 N6      
 FINSF
 %
 GROUP_MA
 BAS                     
 M9      
 FINSF
 %
 GROUP_MA
 HAUT                    
 M10     
 FINSF
 %
 FIN
