# coding=utf-8
# --------------------------------------------------------------------
# Copyright (C) 1991 - 2025 - EDF R&D - www.code-aster.org
# This file is part of code_aster.
#
# code_aster is free software: you can redistribute it and/or modify
# it under the terms of the GNU General Public License as published by
# the Free Software Foundation, either version 3 of the License, or
# (at your option) any later version.
#
# code_aster is distributed in the hope that it will be useful,
# but WITHOUT ANY WARRANTY; without even the implied warranty of
# MERCHANTABILITY or FITNESS FOR A PARTICULAR PURPOSE.  See the
# GNU General Public License for more details.
#
# You should have received a copy of the GNU General Public License
# along with code_aster.  If not, see <http://www.gnu.org/licenses/>.
# --------------------------------------------------------------------

DEBUT(CODE="OUI", ERREUR=_F(ALARME="EXCEPTION"), DEBUG=_F(SDVERI="OUI"))

MA = LIRE_MAILLAGE(FORMAT="MED")

MAT = DEFI_MATERIAU(ELAS=_F(E=1e9, NU=0.2))

L_TPS = DEFI_LIST_REEL(DEBUT=0.0, INTERVALLE=_F(JUSQU_A=1.0, NOMBRE=1))

L_ARCH = DEFI_LIST_REEL(DEBUT=0.0, INTERVALLE=_F(JUSQU_A=1.0, NOMBRE=1))

# MODELISATION 3D

MO0 = AFFE_MODELE(MAILLAGE=MA, AFFE=_F(TOUT="OUI", PHENOMENE="MECANIQUE", MODELISATION="3D"))

MOMAT0 = AFFE_MATERIAU(MAILLAGE=MA, AFFE=_F(TOUT="OUI", MATER=MAT))

AX = 0.0
AY = 0.0
AZ = 0.0
BX = 1.0e-3
BY = 0.0
BZ = -6.0e-4
CX = 2.0e-3
CY = -2.0e-3
CZ = -3.0e-3
DX = 1.0e-3
DY = -2.0e-3
DZ = -2.4e-3
EX = 0.0
EY = 2.2e-3
EZ = 3.0e-3
FX = 1.0e-3
FY = 2.2e-3
FZ = 2.4e-3
GX = 2.0e-3
GY = 2.0e-4
GZ = 0.0
HX = 1.0e-3
HY = 2.0e-4
HZ = 6.0e-4

BLOC0 = AFFE_CHAR_MECA(
    MODELE=MO0,
    DDL_IMPO=(
        _F(GROUP_NO="A", DX=AX, DY=AY, DZ=AZ),
        _F(GROUP_NO="B", DX=BX, DY=BY, DZ=BZ),
        _F(GROUP_NO="C", DX=CX, DY=CY, DZ=CZ),
        _F(GROUP_NO="D", DX=DX, DY=DY, DZ=DZ),
        _F(GROUP_NO="E", DX=EX, DY=EY, DZ=EZ),
        _F(GROUP_NO="F", DX=FX, DY=FY, DZ=FZ),
        _F(GROUP_NO="G", DX=GX, DY=GY, DZ=GZ),
        _F(GROUP_NO="H", DX=HX, DY=HY, DZ=HZ),
    ),
)

U0 = STAT_NON_LINE(
    MODELE=MO0,
    CHAM_MATER=MOMAT0,
    EXCIT=_F(CHARGE=BLOC0),
    COMPORTEMENT=_F(RELATION="ELAS"),
    INCREMENT=_F(LIST_INST=L_TPS),
    ARCHIVAGE=_F(LIST_INST=L_ARCH),
)

U0 = CALC_CHAMP(reuse=U0, ENERGIE="ENEL_ELEM", RESULTAT=U0)

TEST_RESU(
    RESU=_F(
        NUME_ORDRE=1,
        REFERENCE="ANALYTIQUE",
        RESULTAT=U0,
        NOM_CHAM="ENEL_ELEM",
        NOM_CMP="TOTALE",
        VALE_REFE=6680.555556,
        VALE_CALC=6680.555556,
        GROUP_MA="M19",
    )
)

# MODELISATION 3D_SI

MA1 = CREA_MAILLAGE(MAILLAGE=MA, LINE_QUAD=_F(TOUT="OUI"))

MA1 = DEFI_GROUP(
    reuse=MA1,
    MAILLAGE=MA1,
    CREA_GROUP_NO=(
        _F(NOM="NS2", NOEUD="N10"),
        _F(NOM="NS12", NOEUD="N20"),
        _F(NOM="NS7", NOEUD="N15"),
        _F(NOM="NS3", NOEUD="N11"),
        _F(NOM="NS11", NOEUD="N19"),
        _F(NOM="NS4", NOEUD="N12"),
        _F(NOM="NS8", NOEUD="N16"),
        _F(NOM="NS9", NOEUD="N17"),
        _F(NOM="NS1", NOEUD="N9"),
        _F(NOM="NS5", NOEUD="N13"),
        _F(NOM="NS6", NOEUD="N14"),
        _F(NOM="NS10", NOEUD="N18"),
    ),
)

MO1 = AFFE_MODELE(MAILLAGE=MA1, AFFE=_F(TOUT="OUI", PHENOMENE="MECANIQUE", MODELISATION="3D_SI"))

MOMAT1 = AFFE_MATERIAU(MAILLAGE=MA1, AFFE=_F(TOUT="OUI", MATER=MAT))

NS1X = (AX + EX) * 0.5
NS1Y = (AY + EY) * 0.5
NS1Z = (AZ + EZ) * 0.5
NS2X = (EX + HX) * 0.5
NS2Y = (EY + HY) * 0.5
NS2Z = (EZ + HZ) * 0.5
NS3X = (DX + HX) * 0.5
NS3Y = (DY + HY) * 0.5
NS3Z = (DZ + HZ) * 0.5
NS4X = (AX + DX) * 0.5
NS4Y = (AY + DY) * 0.5
NS4Z = (AZ + DZ) * 0.5
NS5X = (BX + FX) * 0.5
NS5Y = (BY + FY) * 0.5
NS5Z = (BZ + FZ) * 0.5
NS6X = (FX + GX) * 0.5
NS6Y = (FY + GY) * 0.5
NS6Z = (FZ + GZ) * 0.5
NS7X = (CX + GX) * 0.5
NS7Y = (CY + GY) * 0.5
NS7Z = (CZ + GZ) * 0.5
NS8X = (BX + CX) * 0.5
NS8Y = (BY + CY) * 0.5
NS8Z = (BZ + CZ) * 0.5
NS9X = (AX + BX) * 0.5
NS9Y = (AY + BY) * 0.5
NS9Z = (AZ + BZ) * 0.5
NS10X = (EX + FX) * 0.5
NS10Y = (EY + FY) * 0.5
NS10Z = (EZ + FZ) * 0.5
NS11X = (CX + DX) * 0.5
NS11Y = (CY + DY) * 0.5
NS11Z = (CZ + DZ) * 0.5
NS12X = (GX + HX) * 0.5
NS12Y = (GY + HY) * 0.5
NS12Z = (GZ + HZ) * 0.5

BLOC1 = AFFE_CHAR_MECA(
    MODELE=MO1,
    DDL_IMPO=(
        _F(GROUP_NO="A", DX=AX, DY=AY, DZ=AZ),
        _F(GROUP_NO="B", DX=BX, DY=BY, DZ=BZ),
        _F(GROUP_NO="C", DX=CX, DY=CY, DZ=CZ),
        _F(GROUP_NO="D", DX=DX, DY=DY, DZ=DZ),
        _F(GROUP_NO="E", DX=EX, DY=EY, DZ=EZ),
        _F(GROUP_NO="F", DX=FX, DY=FY, DZ=FZ),
        _F(GROUP_NO="G", DX=GX, DY=GY, DZ=GZ),
        _F(GROUP_NO="H", DX=HX, DY=HY, DZ=HZ),
        _F(GROUP_NO="NS1", DX=NS1X, DY=NS1Y, DZ=NS1Z),
        _F(GROUP_NO="NS2", DX=NS2X, DY=NS2Y, DZ=NS2Z),
        _F(GROUP_NO="NS3", DX=NS3X, DY=NS3Y, DZ=NS3Z),
        _F(GROUP_NO="NS4", DX=NS4X, DY=NS4Y, DZ=NS4Z),
        _F(GROUP_NO="NS5", DX=NS5X, DY=NS5Y, DZ=NS5Z),
        _F(GROUP_NO="NS6", DX=NS6X, DY=NS6Y, DZ=NS6Z),
        _F(GROUP_NO="NS7", DX=NS7X, DY=NS7Y, DZ=NS7Z),
        _F(GROUP_NO="NS8", DX=NS8X, DY=NS8Y, DZ=NS8Z),
        _F(GROUP_NO="NS9", DX=NS9X, DY=NS9Y, DZ=NS9Z),
        _F(GROUP_NO="NS10", DX=NS10X, DY=NS10Y, DZ=NS10Z),
        _F(GROUP_NO="NS11", DX=NS11X, DY=NS11Y, DZ=NS11Z),
        _F(GROUP_NO="NS12", DX=NS12X, DY=NS12Y, DZ=NS12Z),
    ),
)

U1 = STAT_NON_LINE(
    MODELE=MO1,
    CHAM_MATER=MOMAT1,
    EXCIT=_F(CHARGE=BLOC1),
    COMPORTEMENT=_F(RELATION="ELAS"),
    INCREMENT=_F(LIST_INST=L_TPS),
    ARCHIVAGE=_F(LIST_INST=L_ARCH),
)

U1 = CALC_CHAMP(reuse=U1, ENERGIE="ENEL_ELEM", DEFORMATION="EPSP_ELGA", RESULTAT=U1)

TEST_RESU(
    RESU=_F(
        NUME_ORDRE=1,
        REFERENCE="ANALYTIQUE",
        RESULTAT=U1,
        NOM_CHAM="ENEL_ELEM",
        NOM_CMP="TOTALE",
        VALE_REFE=6680.555556,
        VALE_CALC=6680.555556,
        GROUP_MA="M19",
    )
)

FIN()
