# coding=utf-8
# --------------------------------------------------------------------
# Copyright (C) 1991 - 2025 - EDF R&D - www.code-aster.org
# This file is part of code_aster.
#
# code_aster is free software: you can redistribute it and/or modify
# it under the terms of the GNU General Public License as published by
# the Free Software Foundation, either version 3 of the License, or
# (at your option) any later version.
#
# code_aster is distributed in the hope that it will be useful,
# but WITHOUT ANY WARRANTY; without even the implied warranty of
# MERCHANTABILITY or FITNESS FOR A PARTICULAR PURPOSE.  See the
# GNU General Public License for more details.
#
# You should have received a copy of the GNU General Public License
# along with code_aster.  If not, see <http://www.gnu.org/licenses/>.
# --------------------------------------------------------------------

DEBUT(CODE="OUI", ERREUR=_F(ALARME="EXCEPTION"))

pMesh0 = LIRE_MAILLAGE(UNITE=20, FORMAT="MED", PARTITIONNEUR="PTSCOTCH", INFO_MED=1)

pMesh1 = CREA_MAILLAGE(MAILLAGE=pMesh0, QUAD_LINE=_F(TOUT="OUI"))

pMesh = CREA_MAILLAGE(MAILLAGE=pMesh1, LINE_QUAD=_F(TOUT="OUI"))


model = AFFE_MODELE(
    MAILLAGE=pMesh, AFFE=_F(MODELISATION="D_PLAN", PHENOMENE="MECANIQUE", TOUT="OUI")
)


MA = DEFI_MATERIAU(ELAS=_F(E=210000e6, NU=0.3))

MATE = AFFE_MATERIAU(MAILLAGE=pMesh, AFFE=_F(TOUT="OUI", MATER=MA))

CHAR = AFFE_CHAR_CINE(
    MODELE=model,
    MECA_IMPO=(
        _F(GROUP_MA="BAS", DY=-1.0),
        _F(GROUP_MA="HAUT", DY=1.0),
        _F(GROUP_MA="GAUCHE", DX=-1.0),
        _F(GROUP_MA="DROIT", DX=1.0),
    ),
)

LINSTC = DEFI_LIST_REEL(VALE=(0.0, 1.0))

RESU = STAT_NON_LINE(
    MODELE=model,
    CHAM_MATER=MATE,
    EXCIT=_F(CHARGE=CHAR),
    SOLVEUR=_F(METHODE="PETSC", PRE_COND="ML", RESI_RELA=1e-12),
    INCREMENT=_F(LIST_INST=LINSTC),
)

TEST_RESU(
    RESU=(
        _F(
            GROUP_NO=("GN0",),
            NOM_CHAM="DEPL",
            NOM_CMP="DX",
            INST=1.0,
            PRECISION=0.00001,
            REFERENCE="ANALYTIQUE",
            RESULTAT=RESU,
            ORDRE_GRANDEUR=1e-4,
            CRITERE="ABSOLU",
            VALE_CALC=2.6988334396258498e-17,
            VALE_REFE=0.0,
        ),
        _F(
            CRITERE=("RELATIF",),
            GROUP_NO=("GN0",),
            NOM_CHAM="DEPL",
            NOM_CMP="DY",
            INST=1.0,
            PRECISION=0.00001,
            REFERENCE="ANALYTIQUE",
            RESULTAT=RESU,
            VALE_CALC=-0.9999999999999999,
            VALE_REFE=-1.0,
        ),
    )
)

TEST_RESU(
    RESU=(
        _F(
            GROUP_NO=("GN1",),
            NOM_CHAM="DEPL",
            NOM_CMP="DX",
            INST=1.0,
            PRECISION=0.00001,
            REFERENCE="ANALYTIQUE",
            RESULTAT=RESU,
            ORDRE_GRANDEUR=1e-4,
            CRITERE="ABSOLU",
            VALE_CALC=2.6988334396258498e-17,
            VALE_REFE=0.0,
        ),
        _F(
            CRITERE=("RELATIF",),
            GROUP_NO=("GN1",),
            NOM_CHAM="DEPL",
            NOM_CMP="DY",
            INST=1.0,
            PRECISION=0.00001,
            REFERENCE="ANALYTIQUE",
            RESULTAT=RESU,
            VALE_CALC=0.9999999999999999,
            VALE_REFE=1.0,
        ),
    )
)

FIN()
