# coding=utf-8
# --------------------------------------------------------------------
# Copyright (C) 1991 - 2025 - EDF R&D - www.code-aster.org
# This file is part of code_aster.
#
# code_aster is free software: you can redistribute it and/or modify
# it under the terms of the GNU General Public License as published by
# the Free Software Foundation, either version 3 of the License, or
# (at your option) any later version.
#
# code_aster is distributed in the hope that it will be useful,
# but WITHOUT ANY WARRANTY; without even the implied warranty of
# MERCHANTABILITY or FITNESS FOR A PARTICULAR PURPOSE.  See the
# GNU General Public License for more details.
#
# You should have received a copy of the GNU General Public License
# along with code_aster.  If not, see <http://www.gnu.org/licenses/>.
# --------------------------------------------------------------------

DEBUT(CODE="OUI", ERREUR=_F(ALARME="EXCEPTION"), DEBUG=_F(SDVERI="OUI"))

MAIL = LIRE_MAILLAGE()

# construction de la variable de commande TEMP à partir de la table
# ===

TABLE_TEMP = LIRE_TABLE(UNITE=30)
temp_values = TABLE_TEMP.EXTR_TABLE().values()
inst = temp_values["INST"]
temp = temp_values["TEMP"]

affe = []
for i, t in zip(inst, temp):
    champ = CREA_CHAMP(
        TYPE_CHAM="NOEU_TEMP_R",
        OPERATION="AFFE",
        MAILLAGE=MAIL,
        AFFE=_F(TOUT="OUI", NOM_CMP="TEMP", VALE=t),
    )
    affe.append({"NOM_CHAM": "TEMP", "CHAM_GD": champ, "INST": i})

TEMP2 = CREA_RESU(OPERATION="AFFE", TYPE_RESU="EVOL_THER", AFFE=affe)

# construction d'un résultat mécanique bidon contenant les bon matériaux et la variable de commande TEMP
# ===

MO_MECA = AFFE_MODELE(
    MAILLAGE=MAIL, AFFE=_F(GROUP_MA=("M",), PHENOMENE="MECANIQUE", MODELISATION="3D")
)

YOUNGMET = DEFI_FONCTION(
    NOM_PARA="TEMP",
    VALE=(
        0.00000e00,
        2.05000e11,
        2.00000e01,
        2.04000e11,
        5.00000e01,
        2.03000e11,
        1.00000e02,
        2.00000e11,
        1.50000e02,
        1.97000e11,
        2.00000e02,
        1.93000e11,
        2.50000e02,
        1.89000e11,
        3.00000e02,
        1.85000e11,
        3.50000e02,
        1.80000e11,
    ),
    PROL_DROITE="LINEAIRE",
    PROL_GAUCHE="LINEAIRE",
)

NUMET = DEFI_CONSTANTE(VALE=0.3)

K_IC = DEFI_FONCTION(
    NOM_PARA="TEMP",
    VALE=(
        0.00000e00,
        3.75976e07,
        1.00000e00,
        3.77849e07,
        2.00000e00,
        3.79760e07,
        3.00000e00,
        3.81709e07,
        4.00000e00,
        3.83699e07,
        5.00000e00,
        3.85732e07,
        6.00000e00,
        3.87808e07,
        7.00000e00,
        3.89930e07,
        8.00000e00,
        3.92099e07,
        9.00000e00,
        3.94318e07,
# ... 214 like lines cut
    ),
    PROL_DROITE="LINEAIRE",
    PROL_GAUCHE="LINEAIRE",
)

MAME_MET = DEFI_MATERIAU(ELAS_FO=_F(E=YOUNGMET, NU=NUMET), RUPT_FM=_F(KIC=K_IC))


CHMAT_ME = AFFE_MATERIAU(
    MAILLAGE=MAIL,
    AFFE=(_F(GROUP_MA="M", MATER=MAME_MET),),
    AFFE_VARC=(_F(GROUP_MA=("M"), NOM_VARC="TEMP", EVOL=TEMP2, VALE_REF=291.0),),
)

affe = []
for i in inst:
    champ = CREA_CHAMP(
        TYPE_CHAM="NOEU_DEPL_R",
        OPERATION="AFFE",
        MAILLAGE=MAIL,
        AFFE=_F(TOUT="OUI", NOM_CMP=("DX", "DY", "DZ"), VALE=(0, 0, 0)),
    )
    affe.append(
        {"NOM_CHAM": "DEPL", "CHAM_GD": champ, "INST": i, "MODELE": MO_MECA, "CHAM_MATER": CHMAT_ME}
    )

SIG_pl = CREA_RESU(OPERATION="AFFE", TYPE_RESU="EVOL_NOLI", AFFE=affe)

# récupération de la table G
# ===

TABLE_G = LIRE_TABLE(UNITE=31)

# appel à POST_FM
# ===

FM = POST_FM(RESULTAT=SIG_pl, TABLE_G=TABLE_G, GROUP_NO="PFFM")

# print(FM.EXTR_TABLE())

# tests
# ===

TEST_TABLE(TYPE_TEST="MIN", VALE_CALC=39.0786, NOM_PARA="TEMP", TABLE=FM)

TEST_TABLE(TYPE_TEST="MIN", VALE_CALC=49692276.9091023, NOM_PARA="KIC", TABLE=FM)

TEST_TABLE(
    TYPE_TEST="MAX",
    REFERENCE="AUTRE_ASTER",
    PRECISION=0.002,
    VALE_CALC=61183693.25678746,
    VALE_REFE=61.2548 * 1e6,
    NOM_PARA="KELAS",
    TABLE=FM,
)

TEST_TABLE(
    TYPE_TEST="MAX",
    REFERENCE="AUTRE_ASTER",
    PRECISION=0.002,
    VALE_CALC=76885447.8196958,
    VALE_REFE=76.9762 * 1e6,
    NOM_PARA="KPLAS",
    TABLE=FM,
)

TEST_TABLE(TYPE_TEST="MAX", VALE_CALC=76885447.8196958, NOM_PARA="KCP", TABLE=FM)

TEST_TABLE(
    TYPE_TEST="MIN",
    REFERENCE="AUTRE_ASTER",
    PRECISION=0.005,
    VALE_CALC=1.2208963668112616,
    VALE_REFE=1.215567442725526,
    NOM_PARA="FM_ASN",
    TABLE=FM,
)

TEST_TABLE(
    FILTRE=_F(NOM_PARA="INST", VALE=3300.0),
    TYPE_TEST="MAX",
    VALE_CALC=1.2208963668112616,
    NOM_PARA="FM_ASN",
    TABLE=FM,
)

FIN()
