# coding=utf-8
# --------------------------------------------------------------------
# Copyright (C) 1991 - 2025 - EDF R&D - www.code-aster.org
# This file is part of code_aster.
#
# code_aster is free software: you can redistribute it and/or modify
# it under the terms of the GNU General Public License as published by
# the Free Software Foundation, either version 3 of the License, or
# (at your option) any later version.
#
# code_aster is distributed in the hope that it will be useful,
# but WITHOUT ANY WARRANTY; without even the implied warranty of
# MERCHANTABILITY or FITNESS FOR A PARTICULAR PURPOSE.  See the
# GNU General Public License for more details.
#
# You should have received a copy of the GNU General Public License
# along with code_aster.  If not, see <http://www.gnu.org/licenses/>.
# --------------------------------------------------------------------

DEBUT(CODE="OUI", ERREUR=_F(ALARME="EXCEPTION"), DEBUG=_F(SDVERI="OUI"))

# ==================================================================================================
#
# CALCUL DE REFERENCE POUR ZZZZ395a
#
# ==================================================================================================

# Get mesh
mesh = LIRE_MAILLAGE(FORMAT="MED")

# Heat transfer coefficient with air (W.mm-2.K-1)
C_echang = DEFI_CONSTANTE(VALE=1.5e-05)

# Heat transfer coefficient with one face of the cube (W.mm-2.K-1)
C_echanf = DEFI_CONSTANTE(VALE=1.0)

# Ambient temperature
T_ex = DEFI_CONSTANTE(VALE=20.0)

# Temperature of one face of the cube
T_im = DEFI_FONCTION(
    NOM_PARA="INST",
    VALE=(
        0.0,
        20.0,
        1.0,
        30.0,
        2.0,
        50.0,
        3.0,
        90.0,
        4.0,
        140.0,
        5.0,
        240.0,
        6.0,
        350.0,
        7.0,
        570.0,
        8.0,
        800.0,
        9.0,
        1000.0,
    ),
    PROL_DROITE="CONSTANT",
    PROL_GAUCHE="LINEAIRE",
)

# Emissivity
C_epsi = DEFI_CONSTANTE(VALE=0.75)

# Stefan–Boltzmann constant (J.mm-2.s-1.K-4)
C_sigma = DEFI_CONSTANTE(VALE=5.67e-14)


# Thermal conductivity depending by the temperature (W.mm-1.K-1)
Lambda = DEFI_FONCTION(
    NOM_PARA="TEMP",
    VALE=(
        20.0,
        0.014,
        100.0,
        0.0152,
        200.0,
        0.0166,
        300.0,
        0.0179,
        400.0,
        0.019,
        500.0,
        0.0206,
        600.0,
        0.0218,
        700.0,
        0.0231,
        800.0,
        0.0243,
        900.0,
        0.026,
# ... 4 like lines cut
    ),
    PROL_DROITE="LINEAIRE",
    PROL_GAUCHE="LINEAIRE",
)

# Volumetric heat capacity depending by the temperature (J.mm-3.K-1)
rho_cp = DEFI_FONCTION(
    NOM_PARA="TEMP",
    VALE=(
        20.0,
        0.0036,
        100.0,
        0.0039053,
        200.0,
        0.0041685,
        300.0,
        0.0043,
        400.0,
        0.004396,
        500.0,
        0.004446,
        600.0,
        0.004495,
        700.0,
        0.0045815,
        800.0,
        0.0047875,
        900.0,
        0.0049465,
# ... 4 like lines cut
    ),
    PROL_DROITE="LINEAIRE",
    PROL_GAUCHE="LINEAIRE",
)

# Define the material
steel = DEFI_MATERIAU(THER_NL=_F(LAMBDA=Lambda, RHO_CP=rho_cp))

# Define the material field
chmat = AFFE_MATERIAU(MAILLAGE=mesh, AFFE=_F(TOUT="OUI", MATER=steel))

# Thermic model
model = AFFE_MODELE(MAILLAGE=mesh, AFFE=_F(TOUT="OUI", PHENOMENE="THERMIQUE", MODELISATION="3D"))

# Boundary condition
chg_th = AFFE_CHAR_THER_F(
    MODELE=model,
    RAYONNEMENT=_F(GROUP_MA="S_e", SIGMA=C_sigma, EPSILON=C_epsi, TEMP_EXT=T_ex),
    ECHANGE=(
        _F(GROUP_MA="S_e", COEF_H=C_echang, TEMP_EXT=T_ex),
        _F(GROUP_MA="S_f", COEF_H=C_echanf, TEMP_EXT=T_im),
    ),
)

# Managing time stepping
list_t = DEFI_LIST_REEL(DEBUT=0.0, INTERVALLE=_F(JUSQU_A=10.0, PAS=1.0))
list_i = DEFI_LIST_INST(METHODE="MANUEL", DEFI_LIST=_F(LIST_INST=list_t))

# Calcul de référence
thnl = THER_NON_LINE(
    MODELE=model,
    CHAM_MATER=chmat,
    EXCIT=_F(CHARGE=chg_th),
    INCREMENT=_F(LIST_INST=list_i),
    ETAT_INIT=_F(VALE=20.0),
    NEWTON=_F(REAC_ITER=1, ITER_LINE_MAXI=3),
    CONVERGENCE=_F(RESI_GLOB_MAXI=1e-5),
)

thnl = CALC_CHAMP(reuse=thnl, RESULTAT=thnl, THERMIQUE=("FLUX_NOEU",))

IMPR_RESU(FORMAT="MED", UNITE=80, RESU=_F(RESULTAT=thnl, INST=(0, 1, 2, 3, 4, 5)))
IMPR_RESU(FORMAT="MED", UNITE=81, RESU=_F(RESULTAT=thnl, INST=(6, 7, 8, 9, 10)))

# Valeurs de référence
TEST_RESU(
    RESU=(
        _F(
            RESULTAT=thnl,
            INST=1.0,
            NOM_CHAM="TEMP",
            GROUP_NO="N27",
            NOM_CMP="TEMP",
            VALE_CALC=29.9053048593,
        ),
        _F(
            RESULTAT=thnl,
            INST=4.0,
            NOM_CHAM="TEMP",
            GROUP_NO="N27",
            NOM_CMP="TEMP",
            VALE_CALC=139.462715634,
        ),
        _F(
            RESULTAT=thnl,
            INST=7.0,
            NOM_CHAM="TEMP",
            GROUP_NO="N27",
            NOM_CMP="TEMP",
            VALE_CALC=567.08693147,
        ),
        _F(
            RESULTAT=thnl,
            INST=10.0,
            NOM_CHAM="TEMP",
            GROUP_NO="N27",
            NOM_CMP="TEMP",
            VALE_CALC=999.349943608,
        ),
    )
)

FIN()
