# coding=utf-8
# --------------------------------------------------------------------
# Copyright (C) 1991 - 2025 - EDF R&D - www.code-aster.org
# This file is part of code_aster.
#
# code_aster is free software: you can redistribute it and/or modify
# it under the terms of the GNU General Public License as published by
# the Free Software Foundation, either version 3 of the License, or
# (at your option) any later version.
#
# code_aster is distributed in the hope that it will be useful,
# but WITHOUT ANY WARRANTY; without even the implied warranty of
# MERCHANTABILITY or FITNESS FOR A PARTICULAR PURPOSE.  See the
# GNU General Public License for more details.
#
# You should have received a copy of the GNU General Public License
# along with code_aster.  If not, see <http://www.gnu.org/licenses/>.
# --------------------------------------------------------------------

# person_in_charge: donatien.rossat at edf.fr
#

import numpy as np
from code_aster.Commands import *
from code_aster import CA

###
DEBUT(CODE="OUI")

MESH = LIRE_MAILLAGE(FORMAT="MED", UNITE=20)

nc = MESH.getNumberOfCells()
for n in range(nc):
    gma = "P{0}".format(n)
    MESH.setGroupOfCells(gma, [n])

MODEL = AFFE_MODELE(
    MAILLAGE=MESH, AFFE=(_F(TOUT="OUI", PHENOMENE="MECANIQUE", MODELISATION="DIS_T"),)
)

MATER = DEFI_MATERIAU(ELAS=_F(E=2.0e11, NU=0.3, RHO=7800.0))

CHMAT = AFFE_MATERIAU(MODELE=MODEL, AFFE=_F(TOUT="OUI", MATER=MATER))

## List of eigenfrequencies
list_freq = np.array(
    [
        105.37853977,
        122.28777882,
        31.11268747,
        24.28684931,
        168.5137411,
        29.59719564,
        89.87614571,
        116.04591321,
        191.22336248,
        354.51500678,
        29.45212552,
        350.13859322,
        107.32308906,
        308.74325978,
        335.75518154,
        25.07021296,
        333.27837342,
        100.85866233,
        338.93055871,
        153.92830402,
# ... 96 like lines cut
    ]
)  # [Hz]
fmin = 18.0  # [Hz]
fmax = 455.0  # [Hz]
N = np.sum(
    (list_freq >= fmin) * (list_freq <= fmax)
)  # number of eigenfrequencies between fmin and fmax [-]

## Build matrices such that eigenfrequencies of the corresponding GEP are those of list_freq
DISCRET_args = [_F(GROUP_MA="POI1", CARA="M_T_D_N", VALE=(1.0,))]
for n in range(nc):
    DISCRET_args.append(
        _F(GROUP_MA="P{0}".format(n), CARA="K_T_D_N", VALE=((2 * np.pi * list_freq[n]) ** 2,) * 3)
    )

CARA = AFFE_CARA_ELEM(MODELE=MODEL, DISCRET=DISCRET_args)

BC = AFFE_CHAR_CINE(MODELE=MODEL, MECA_IMPO=(_F(TOUT="OUI", DY=0.0, DZ=0.0),))


ASSEMBLAGE(
    MODELE=MODEL,
    CHAM_MATER=CHMAT,
    CARA_ELEM=CARA,
    CHAR_CINE=BC,
    NUME_DDL=CO("NUMEDDL"),
    MATR_ASSE=(
        _F(MATRICE=CO("RIGI"), OPTION="RIGI_MECA"),
        _F(MATRICE=CO("MASS"), OPTION="MASS_MECA"),
    ),
)


## Run frequency bands balancing algorithm
Nb = 40  # number of desired modes per band [-]
tol = 5e-2  # balancing tolerance [-]

# List-based balancing (given frequencies)
RES_LIST = DEFI_LIST_FREQ(
    EQUI_MODES=_F(
        TYPE_SAISIE="LISTE",
        FREQ_MIN=fmin,
        FREQ_MAX=fmax,
        LIST_FREQ=list_freq.tolist(),
        TOLERANCE=tol,
        NB_MODES=Nb,
    )
)

# Matrix-based balancing
RES_MATR = DEFI_LIST_FREQ(
    EQUI_MODES=_F(
        TYPE_SAISIE="MATR_ASSE",
        FREQ_MIN=fmin,
        FREQ_MAX=fmax,
        MATR_RIGI=RIGI,
        MATR_MASS=MASS,
        TOLERANCE=tol,
        NB_MODES=Nb,
    )
)


## Extract results
eps_LIST = np.array(RES_LIST.EXTR_TABLE().values()["ERR_REL"])
freq_LIST = np.array(
    [RES_LIST.EXTR_TABLE().values()["FREQ_MIN"][0]] + RES_LIST.EXTR_TABLE().values()["FREQ_MAX"]
)
counts_LIST = np.array(RES_LIST.EXTR_TABLE().values()["NB_MODES"])

eps_MATR = np.array(RES_MATR.EXTR_TABLE().values()["ERR_REL"])
freq_MATR = np.array(
    [RES_MATR.EXTR_TABLE().values()["FREQ_MIN"][0]] + RES_MATR.EXTR_TABLE().values()["FREQ_MAX"]
)
counts_MATR = np.array(RES_MATR.EXTR_TABLE().values()["NB_MODES"])

## Test frequency bands balancing
test = CA.TestCase()

# Check results
test.assertTrue(np.max(eps_LIST) < tol)
test.assertTrue(np.max(eps_MATR) < tol)
test.assertEqual(counts_LIST.sum(), N)
test.assertEqual(counts_MATR.sum(), N)
test.assertTrue(np.allclose(freq_LIST, freq_MATR))

# Non regression testing
test.assertTrue(np.allclose(freq_LIST, [18.0, 110.86250000000001, 192.8, 455.0]))
test.assertTrue(np.allclose(freq_MATR, [18.0, 110.86250000000001, 192.8, 455.0]))

test.printSummary()

###
FIN()
