# coding=utf-8
# --------------------------------------------------------------------
# Copyright (C) 1991 - 2025 - EDF R&D - www.code-aster.org
# This file is part of code_aster.
#
# code_aster is free software: you can redistribute it and/or modify
# it under the terms of the GNU General Public License as published by
# the Free Software Foundation, either version 3 of the License, or
# (at your option) any later version.
#
# code_aster is distributed in the hope that it will be useful,
# but WITHOUT ANY WARRANTY; without even the implied warranty of
# MERCHANTABILITY or FITNESS FOR A PARTICULAR PURPOSE.  See the
# GNU General Public License for more details.
#
# You should have received a copy of the GNU General Public License
# along with code_aster.  If not, see <http://www.gnu.org/licenses/>.
# --------------------------------------------------------------------

DEBUT(CODE="OUI", ERREUR=_F(ALARME="EXCEPTION"), DEBUG=_F(SDVERI="OUI"))

mamec = LIRE_MAILLAGE()

# construction de la variable de commande TEMP à partir de la table
# ===

TABLE_TEMP = LIRE_TABLE(UNITE=30)
temp_values = TABLE_TEMP.EXTR_TABLE().values()
inst = temp_values["INST"]
temp = temp_values["TEMP"]

affe = []
for i, t in zip(inst, temp):
    champ = CREA_CHAMP(
        TYPE_CHAM="NOEU_TEMP_R",
        OPERATION="AFFE",
        MAILLAGE=mamec,
        AFFE=_F(TOUT="OUI", NOM_CMP="TEMP", VALE=t),
    )
    affe.append({"NOM_CHAM": "TEMP", "CHAM_GD": champ, "INST": i})

t_proj = CREA_RESU(OPERATION="AFFE", TYPE_RESU="EVOL_THER", AFFE=affe)

# construction d'un résultat mécanique bidon contenant les bon matériaux et la variable de commande TEMP
# ===

momec = AFFE_MODELE(
    MAILLAGE=mamec, AFFE=_F(GROUP_MA=("SMB"), PHENOMENE="MECANIQUE", MODELISATION="AXIS")
)

E_MB = DEFI_FONCTION(
    NOM_PARA="TEMP",
    VALE=(
        0.0,
        205000.0,
        20.0,
        204000.0,
        50.0,
        203000.0,
        100.0,
        200000.0,
        150.0,
        197000.0,
        200.0,
        193000.0,
        250.0,
        189000.0,
        300.0,
        185000.0,
        350.0,
        180000.0,
        400.0,
        176000.0,
# ... 8 like lines cut
    ),
)

NU_MB = DEFI_CONSTANTE(VALE=0.3)

K_IC = DEFI_FONCTION(
    NOM_PARA="TEMP",
    VALE=(
        0.00000e00,
        1088.889590046877,
        1.00000e00,
        1093.1633916274438,
        2.00000e00,
        1097.4924917910698,
        3.00000e00,
        1101.879032320053,
        4.00000e00,
        1106.3252379505618,
        5.00000e00,
        1110.8334195855368,
        6.00000e00,
        1115.4059776320403,
        7.00000e00,
        1120.0454054678594,
        8.00000e00,
        1124.7542930423763,
        9.00000e00,
        1129.5353306169063,
# ... 780 like lines cut
    ),
    PROL_DROITE="LINEAIRE",
    PROL_GAUCHE="LINEAIRE",
)

MAT_MB3 = DEFI_MATERIAU(ELAS_FO=_F(E=E_MB, NU=NU_MB), RUPT_FM=_F(KIC=K_IC))

MAT_MEC3 = AFFE_MATERIAU(
    MAILLAGE=mamec,
    AFFE=(_F(GROUP_MA="SMB", MATER=MAT_MB3),),
    AFFE_VARC=_F(GROUP_MA=("SMB"), NOM_VARC="TEMP", EVOL=t_proj, VALE_REF=286.0),
)

affe = []
for i in inst:
    champ = CREA_CHAMP(
        TYPE_CHAM="NOEU_DEPL_R",
        OPERATION="AFFE",
        MAILLAGE=mamec,
        AFFE=_F(TOUT="OUI", NOM_CMP=("DX", "DY", "DZ"), VALE=(0, 0, 0)),
    )
    affe.append(
        {"NOM_CHAM": "DEPL", "CHAM_GD": champ, "INST": i, "MODELE": momec, "CHAM_MATER": MAT_MEC3}
    )

rmec_pl = CREA_RESU(OPERATION="AFFE", TYPE_RESU="EVOL_NOLI", AFFE=affe)

# récupération de la table G
# ===

TABLE_G = LIRE_TABLE(UNITE=31)

# appel à POST_FM
# ===

FM = POST_FM(RESULTAT=rmec_pl, TABLE_G=TABLE_G, GROUP_NO="NFISMB")

# tests
# ===

TEST_TABLE(TYPE_TEST="MIN", VALE_CALC=7.05271, NOM_PARA="TEMP", TABLE=FM)

TEST_TABLE(TYPE_TEST="MIN", VALE_CALC=1120.293610931912, NOM_PARA="KIC", TABLE=FM)

TEST_TABLE(
    TYPE_TEST="MAX",
    REFERENCE="AUTRE_ASTER",
    PRECISION=0.002,
    VALE_CALC=2150.7630521585816,
    VALE_REFE=68.11529330737908 * 1000**0.5,
    NOM_PARA="KELAS",
    TABLE=FM,
)

TEST_TABLE(TYPE_TEST="MAX", VALE_CALC=1779.6094007350298, NOM_PARA="KPLAS", TABLE=FM)

TEST_TABLE(
    TYPE_TEST="MAX",
    REFERENCE="AUTRE_ASTER",
    PRECISION=0.02,
    VALE_CALC=1779.6094007350298,
    VALE_REFE=55.23280539241018 * 1000**0.5,
    NOM_PARA="KCP",
    TABLE=FM,
)

TEST_TABLE(TYPE_TEST="MIN", VALE_CALC=0.8529907382901012, NOM_PARA="FM_ASN", TABLE=FM)

TEST_TABLE(
    TYPE_TEST="MIN",
    REFERENCE="AUTRE_ASTER",
    PRECISION=0.02,
    VALE_CALC=1.0635262048534584,
    VALE_REFE=1.08379929189164,
    NOM_PARA="FM_PLAS",
    TABLE=FM,
)

TEST_TABLE(
    FILTRE=_F(NOM_PARA="INST", VALE=900.0),
    TYPE_TEST="MAX",
    VALE_CALC=1.0635262048534584,
    NOM_PARA="FM_PLAS",
    TABLE=FM,
)

# print(FM.EXTR_TABLE())

FIN()
