# coding=utf-8
# --------------------------------------------------------------------
# Copyright (C) 1991 - 2025 - EDF R&D - www.code-aster.org
# This file is part of code_aster.
#
# code_aster is free software: you can redistribute it and/or modify
# it under the terms of the GNU General Public License as published by
# the Free Software Foundation, either version 3 of the License, or
# (at your option) any later version.
#
# code_aster is distributed in the hope that it will be useful,
# but WITHOUT ANY WARRANTY; without even the implied warranty of
# MERCHANTABILITY or FITNESS FOR A PARTICULAR PURPOSE.  See the
# GNU General Public License for more details.
#
# You should have received a copy of the GNU General Public License
# along with code_aster.  If not, see <http://www.gnu.org/licenses/>.
# --------------------------------------------------------------------

"""
======================================================================
                Cas test de la commande IMPR_OAR

        Modélisation B - Chargement thermique axisymétrique
======================================================================

La température est imposée en peau interne, l'échange est nul en peau externe.
Le transitoire est une rampe de 150°C à 50°C en 10s.

Les contraintes résultantes sont stockées dans des tables aster.

Les tables asters sont ensuite imprimées au format OAR.

Le maillage est en mm.

Les groupes du maillage sont :
- faces :
    - Pencas : partie épaisse encastrée
    - Plibre : partie fine
    - Pint : peau intérieure

"""

DEBUT(CODE="OUI", DEBUG=_F(SDVERI="NON"))

# MAILLAGE
MAIL = LIRE_MAILLAGE(FORMAT="MED", UNITE=20)

MAIL = MODI_MAILLAGE(
    reuse=MAIL, MAILLAGE=MAIL, ORIE_PEAU=_F(GROUP_MA_PEAU=["Pint", "Plibre"]), ECHELLE=0.001
)

# MATERIAU
MATER = DEFI_MATERIAU(
    ELAS=_F(E=200000000000.0, NU=0.3, ALPHA=1.096e-05), THER=_F(LAMBDA=54.6, RHO_CP=3710000.0)
)

# CALCUL TRANSITOIRE THERMIQUE


MODTH = AFFE_MODELE(
    MAILLAGE=MAIL, AFFE=_F(TOUT="OUI", PHENOMENE="THERMIQUE", MODELISATION="3D_DIAG")
)

CHMATER = AFFE_MATERIAU(MAILLAGE=MAIL, AFFE=_F(TOUT="OUI", MATER=MATER))

F_TEMP = DEFI_FONCTION(NOM_PARA="INST", VALE=(0, 150, 10, 50, 100, 50))

CHARTH = AFFE_CHAR_THER_F(MODELE=MODTH, TEMP_IMPO=_F(GROUP_MA="Pint", TEMP=F_TEMP))

LINST = DEFI_LIST_REEL(VALE=(0, 5, 10, 20, 25, 30, 100))


TEMPE = THER_LINEAIRE(
    MODELE=MODTH,
    CHAM_MATER=CHMATER,
    EXCIT=_F(CHARGE=CHARTH),
    INCREMENT=_F(LIST_INST=LINST),
    ETAT_INIT=_F(VALE=150),
)

# IMPR_RESU(FORMAT='MED', UNITE=70, RESU=_F(RESULTAT=TEMPE))

tableTEMP = MACR_LIGN_COUPE(
    LIGN_COUPE=(_F(COOR_EXTR=(0.2032, 0.0, 0.0), COOR_ORIG=(0.1818, 0.0, 0.0), NB_POINTS=40),),
    NOM_CHAM="TEMP",
    RESULTAT=TEMPE,
)


IMPR_TABLE(TABLE=tableTEMP, UNITE=8)

# CALCUL THERMO-MECANIQUE

MAIL_MECA = CREA_MAILLAGE(MAILLAGE=MAIL, LINE_QUAD=_F(TOUT="OUI"))

MODMECA = AFFE_MODELE(
    MAILLAGE=MAIL_MECA,
    AFFE=(
        _F(TOUT="OUI", PHENOMENE="MECANIQUE", MODELISATION="3D"),
        _F(GROUP_MA="MO_libre", PHENOMENE="MECANIQUE", MODELISATION="DIS_TR"),
    ),
)

cara = AFFE_CARA_ELEM(
    MODELE=MODMECA,
    DISCRET=_F(GROUP_MA="MO_libre", CARA="K_TR_D_N", VALE=(0.0, 0.0, 0.0, 0.0, 0.0, 0.0)),
)

liaison = AFFE_CHAR_MECA(
    MODELE=MODMECA, LIAISON_ELEM=_F(OPTION="3D_POU", GROUP_MA_1="Plibre", GROUP_NO_2="NO_libre")
)

therproj = PROJ_CHAMP(RESULTAT=TEMPE, MAILLAGE_1=MAIL, MAILLAGE_2=MAIL_MECA, METHODE="AUTO")

CHMECATH = AFFE_MATERIAU(
    MAILLAGE=MAIL_MECA,
    MODELE=MODMECA,
    AFFE=_F(TOUT="OUI", MATER=MATER),
    AFFE_VARC=_F(TOUT="OUI", NOM_VARC="TEMP", EVOL=therproj, VALE_REF=20),
)

CHMECA = AFFE_CHAR_MECA(
    MODELE=MODMECA,
    DDL_IMPO=(
        _F(GROUP_MA="Pencas", DY=0),
        _F(GROUP_MA="Pencas_edge", DZ=0),
        _F(GROUP_NO="NO_B", DX=0),
    ),
    LIAISON_UNIF=(_F(GROUP_MA="Plibre", DDL="DY")),
)

LINST_MECA = DEFI_LIST_REEL(VALE=(0, 10, 20, 30, 100))

RESU = MECA_STATIQUE(
    MODELE=MODMECA,
    CHAM_MATER=CHMECATH,
    CARA_ELEM=cara,
    EXCIT=(_F(CHARGE=CHMECA), _F(CHARGE=liaison)),
    LIST_INST=LINST_MECA,
    SOLVEUR=_F(RESI_RELA=1e-05),
)


# IMPRESSION DES RESULTATS MECANIQUE

RESU = CALC_CHAMP(reuse=RESU, CONTRAINTE=("SIGM_NOEU",), CRITERES=("SIEQ_ELGA",), RESULTAT=RESU)

# IMPR_RESU(FORMAT='MED', UNITE=80, RESU=_F(RESULTAT=RESU))

tableTEMPSIG = MACR_LIGN_COUPE(
    LIGN_COUPE=(_F(COOR_EXTR=(0.2032, 0.0, 0.0), COOR_ORIG=(0.1818, 0.0, 0.0), NB_POINTS=40),),
    NOM_CHAM="SIGM_NOEU",
    RESULTAT=RESU,
)

IMPR_TABLE(TABLE=tableTEMPSIG, UNITE=9)

IMPR_OAR(
    TABL_THER=_F(TEMP=tableTEMP, CONTRAINTE=tableTEMPSIG),
    UNITE=10,
    TITRE="Choc thermique 150 50 - Modélisation b",
    MODELE=MODMECA,
)

TEST_FICHIER(
    FICHIER="fort.10",
    EXPR_IGNORE=("CODE_ASTER", "CREATION"),
    NB_VALE=1450,
    VALE_CALC=1103239617.3247256,
)
FIN()
